@<TRIPOS>MOLECULE
ethylene RC B3LYP/LACVP** SPE = -1664.407383 Hartree
 46 52 0 0 0
SMALL
GASTEIGER

@<TRIPOS>ATOM
      1 FE          0.2338    0.0290   -0.0105 Fe      1  LIG1        0.0000
      2 N          -1.1179    1.4325   -0.5367 N.ar    1  LIG1        0.0000
      3 N          -1.0872   -1.4113   -0.5156 N.ar    1  LIG1        0.0000
      4 N           1.6364    1.4630    0.1961 N.ar    1  LIG1        0.0000
      5 N           1.6517   -1.3853    0.2407 N.ar    1  LIG1        0.0000
      6 C          -0.9440    2.7927   -0.5014 C.ar    1  LIG1        0.0000
      7 C          -0.9014   -2.7728   -0.4244 C.ar    1  LIG1        0.0000
      8 C          -2.4292    1.2313   -0.8725 C.ar    1  LIG1        0.0000
      9 C          -2.4068   -1.2367   -0.8729 C.ar    1  LIG1        0.0000
     10 C           1.4433    2.8164    0.1289 C.ar    1  LIG1        0.0000
     11 C           1.4724   -2.7438    0.2386 C.ar    1  LIG1        0.0000
     12 C           2.9490    1.2878    0.5357 C.ar    1  LIG1        0.0000
     13 C           2.9691   -1.1811    0.5716 C.ar    1  LIG1        0.0000
     14 C          -2.1771    3.4654   -0.8311 C.ar    1  LIG1        0.0000
     15 C          -2.1217   -3.4663   -0.7565 C.ar    1  LIG1        0.0000
     16 C          -3.1019    2.4938   -1.0607 C.ar    1  LIG1        0.0000
     17 C          -3.0527   -2.5157   -1.0368 C.ar    1  LIG1        0.0000
     18 C           2.6684    3.5162    0.4334 C.ar    1  LIG1        0.0000
     19 C           2.7062   -3.4150    0.5708 C.ar    1  LIG1        0.0000
     20 C           3.6068    2.5638    0.6862 C.ar    1  LIG1        0.0000
     21 C           3.6371   -2.4444    0.7729 C.ar    1  LIG1        0.0000
     22 H          -2.3002    4.5393   -0.8772 H       1  LIG1        0.0000
     23 H          -2.2326   -4.5424   -0.7676 H       1  LIG1        0.0000
     24 H          -4.1430    2.6028   -1.3340 H       1  LIG1        0.0000
     25 H          -4.0875   -2.6488   -1.3232 H       1  LIG1        0.0000
     26 H           2.7778    4.5924    0.4442 H       1  LIG1        0.0000
     27 H           2.8262   -4.4885    0.6297 H       1  LIG1        0.0000
     28 H           4.6483    2.6938    0.9484 H       1  LIG1        0.0000
     29 H           4.6811   -2.5539    1.0345 H       1  LIG1        0.0000
     30 C           0.2455    3.4405   -0.1974 C.2     1  LIG1        0.0000
     31 C           0.2804   -3.3943   -0.0557 C.2     1  LIG1        0.0000
     32 C           3.5766    0.0578    0.7058 C.2     1  LIG1        0.0000
     33 C          -3.0343   -0.0122   -1.0308 C.2     1  LIG1        0.0000
     34 H           0.2386    4.5258   -0.2134 H       1  LIG1        0.0000
     35 H           0.2810   -4.4787   -0.0139 H       1  LIG1        0.0000
     36 H           4.6288    0.0696    0.9723 H       1  LIG1        0.0000
     37 H          -4.0855   -0.0229   -1.3003 H       1  LIG1        0.0000
     38 O          -0.1831    0.0700    1.5614 O.3     1  LIG1        0.0000
     39 S           0.8170   -0.3281   -2.4871 S.3     1  LIG1        0.0000
     40 H          -0.3611    0.0745   -3.0076 H       1  LIG1        0.0000
     41 C          -4.4090   -0.0021    3.6321 C.2     1  LIG1        0.0000
     42 C          -3.1492   -0.0005    3.2017 C.2     1  LIG1        0.0000
     43 H          -2.6158    0.9159    2.9669 H       1  LIG1        0.0000
     44 H          -2.5840   -0.9173    3.0612 H       1  LIG1        0.0000
     45 H          -4.9688    0.9194    3.7734 H       1  LIG1        0.0000
     46 H          -4.9348   -0.9245    3.8667 H       1  LIG1        0.0000
@<TRIPOS>BOND
     1    40    39    1
     2    39     1    1
     3    24    16    1
     4    25    17    1
     5    37    33    1
     6    16     8   ar
     7    16    14   ar
     8    17     9   ar
     9    17    15   ar
    10    33     9    1
    11    33     8    2
    12    22    14    1
    13     9     3   ar
    14     8     2   ar
    15    14     6   ar
    16    23    15    1
    17    15     7   ar
    18     2     6   ar
    19     2     1    1
    20     3     7   ar
    21     3     1    1
    22     6    30    2
    23     7    31    2
    24    34    30    1
    25    30    10    1
    26    31    35    1
    27    31    11    1
    28     1     4    1
    29     1     5    1
    30     1    38    1
    31    10     4   ar
    32    10    18   ar
    33     4    12   ar
    34    11     5   ar
    35    11    19   ar
    36     5    13   ar
    37    18    26    1
    38    18    20   ar
    39    12    20   ar
    40    12    32    2
    41    19    27    1
    42    19    21   ar
    43    13    32    1
    44    13    21   ar
    45    20    28    1
    46    32    36    1
    47    21    29    1
    48    43    42    1
    49    44    42    1
    50    42    41    2
    51    41    45    1
    52    41    46    1
@<TRIPOS>MOLECULE
ethylene TS B3LYP/LACVP** SPE = -1664.384575 Hartree imaginary freq = -517.70 cm-1
 46 52 0 0 0
SMALL
GASTEIGER

@<TRIPOS>ATOM
      1 FE          0.1583    0.0213   -0.0189 Fe      1  LIG1        0.0000
      2 N           0.5247    1.9903   -0.0883 N.ar    1  LIG1        0.0000
      3 N          -1.8395    0.3926   -0.2631 N.ar    1  LIG1        0.0000
      4 N           2.1159   -0.3533    0.0937 N.ar    1  LIG1        0.0000
      5 N          -0.2249   -1.9637   -0.1691 N.ar    1  LIG1        0.0000
      6 C           1.7497    2.5999   -0.0106 C.ar    1  LIG1        0.0000
      7 C          -2.8447   -0.5313   -0.3987 C.ar    1  LIG1        0.0000
      8 C          -0.4028    3.0031   -0.1298 C.ar    1  LIG1        0.0000
      9 C          -2.4443    1.6219   -0.2855 C.ar    1  LIG1        0.0000
     10 C           3.1305    0.5656    0.1481 C.ar    1  LIG1        0.0000
     11 C          -1.4500   -2.5678   -0.3262 C.ar    1  LIG1        0.0000
     12 C           2.7157   -1.5857    0.1648 C.ar    1  LIG1        0.0000
     13 C           0.6908   -2.9766   -0.0773 C.ar    1  LIG1        0.0000
     14 C           1.5955    4.0349   -0.0181 C.ar    1  LIG1        0.0000
     15 C          -4.1220    0.1353   -0.5014 C.ar    1  LIG1        0.0000
     16 C           0.2601    4.2849   -0.0883 C.ar    1  LIG1        0.0000
     17 C          -3.8737    1.4720   -0.4294 C.ar    1  LIG1        0.0000
     18 C           4.4063   -0.1028    0.2698 C.ar    1  LIG1        0.0000
     19 C          -1.2957   -4.0022   -0.3403 C.ar    1  LIG1        0.0000
     20 C           4.1486   -1.4370    0.2839 C.ar    1  LIG1        0.0000
     21 C           0.0327   -4.2563   -0.1843 C.ar    1  LIG1        0.0000
     22 H           2.4130    4.7419    0.0306 H       1  LIG1        0.0000
     23 H          -5.0723   -0.3686   -0.6193 H       1  LIG1        0.0000
     24 H          -0.2472    5.2405   -0.1112 H       1  LIG1        0.0000
     25 H          -4.5782    2.2920   -0.4766 H       1  LIG1        0.0000
     26 H           5.3616    0.4015    0.3310 H       1  LIG1        0.0000
     27 H          -2.1083   -4.7075   -0.4548 H       1  LIG1        0.0000
     28 H           4.8481   -2.2592    0.3571 H       1  LIG1        0.0000
     29 H           0.5362   -5.2132   -0.1456 H       1  LIG1        0.0000
     30 C           2.9688    1.9423    0.0897 C.2     1  LIG1        0.0000
     31 C          -2.6688   -1.9089   -0.4271 C.2     1  LIG1        0.0000
     32 C           2.0614   -2.8057    0.0906 C.2     1  LIG1        0.0000
     33 C          -1.7791    2.8397   -0.2138 C.2     1  LIG1        0.0000
     34 H           3.8636    2.5541    0.1426 H       1  LIG1        0.0000
     35 H          -3.5570   -2.5223   -0.5400 H       1  LIG1        0.0000
     36 H           2.6704   -3.7021    0.1503 H       1  LIG1        0.0000
     37 H          -2.3843    3.7403   -0.2434 H       1  LIG1        0.0000
     38 O           0.0316    0.0296    1.6802 O.3     1  LIG1        0.0000
     39 S           0.1007   -0.0905   -2.4356 S.3     1  LIG1        0.0000
     40 H          -0.2507    1.1917   -2.6656 H       1  LIG1        0.0000
     41 C          -2.2599    0.3051    3.0525 C.3     1  LIG1        0.0000
     42 C          -1.3134   -0.6790    2.8636 C.3     1  LIG1        0.0000
     43 H          -0.5559   -0.8419    3.6224 H       1  LIG1        0.0000
     44 H          -1.5448   -1.5349    2.2409 H       1  LIG1        0.0000
     45 H          -2.1117    1.0896    3.7881 H       1  LIG1        0.0000
     46 H          -3.1290    0.3852    2.4087 H       1  LIG1        0.0000
@<TRIPOS>BOND
     1    40    39    1
     2    39     1    1
     3    23    15    1
     4    35    31    1
     5    15    17   ar
     6    15     7   ar
     7    25    17    1
     8    27    19    1
     9    17     9   ar
    10    31     7    2
    11    31    11    1
    12     7     3   ar
    13    19    11   ar
    14    19    21   ar
    15    11     5   ar
    16     9     3   ar
    17     9    33    1
    18     3     1    1
    19    37    33    1
    20    33     8    2
    21    21    29    1
    22    21    13   ar
    23     5    13   ar
    24     5     1    1
    25     8     2   ar
    26     8    16   ar
    27    24    16    1
    28     2     1    1
    29     2     6   ar
    30    16    14   ar
    31    13    32    1
    32     1     4    1
    33     1    38    1
    34    14     6   ar
    35    14    22    1
    36     6    30    2
    37    30    34    1
    38    30    10    1
    39    32    36    1
    40    32    12    2
    41     4    10   ar
    42     4    12   ar
    43    10    18   ar
    44    12    20   ar
    45    18    20   ar
    46    18    26    1
    47    20    28    1
    48    44    42    1
    49    46    41    1
    50    42    41    1
    51    42    43    1
    52    41    45    1
@<TRIPOS>MOLECULE
ethylene Intermediate B3LYP/LACVP** SPE = -1664.412740 Hartree
 46 53 0 0 0
SMALL
GASTEIGER

@<TRIPOS>ATOM
      1 FE          0.0600    0.0155   -0.0904 Fe      1  LIG1        0.0000
      2 N           1.0267    1.7782   -0.1042 N.ar    1  LIG1        0.0000
      3 N          -1.7061    0.9912   -0.1636 N.ar    1  LIG1        0.0000
      4 N           1.8287   -0.9591   -0.0522 N.ar    1  LIG1        0.0000
      5 N          -0.9028   -1.7479   -0.2024 N.ar    1  LIG1        0.0000
      6 C           2.3857    1.9669   -0.0967 C.ar    1  LIG1        0.0000
      7 C          -2.9498    0.4255   -0.3059 C.ar    1  LIG1        0.0000
      8 C           0.4617    3.0290   -0.0452 C.ar    1  LIG1        0.0000
      9 C          -1.9005    2.3480   -0.1139 C.ar    1  LIG1        0.0000
     10 C           3.0751   -0.3934   -0.0583 C.ar    1  LIG1        0.0000
     11 C          -2.2575   -1.9365   -0.3403 C.ar    1  LIG1        0.0000
     12 C           2.0187   -2.3154   -0.0091 C.ar    1  LIG1        0.0000
     13 C          -0.3395   -2.9984   -0.1515 C.ar    1  LIG1        0.0000
     14 C           2.6862    3.3767   -0.0506 C.ar    1  LIG1        0.0000
     15 C          -3.9574    1.4565   -0.3321 C.ar    1  LIG1        0.0000
     16 C           1.4950    4.0341   -0.0121 C.ar    1  LIG1        0.0000
     17 C          -3.3083    2.6468   -0.2064 C.ar    1  LIG1        0.0000
     18 C           4.0860   -1.4241   -0.0090 C.ar    1  LIG1        0.0000
     19 C          -2.5536   -3.3458   -0.3792 C.ar    1  LIG1        0.0000
     20 C           3.4310   -2.6152    0.0279 C.ar    1  LIG1        0.0000
     21 C          -1.3668   -4.0032   -0.2557 C.ar    1  LIG1        0.0000
     22 H           3.6859    3.7903   -0.0386 H       1  LIG1        0.0000
     23 H          -5.0190    1.2745   -0.4344 H       1  LIG1        0.0000
     24 H           1.3132    5.0998    0.0344 H       1  LIG1        0.0000
     25 H          -3.7265    3.6446   -0.1875 H       1  LIG1        0.0000
     26 H           5.1519   -1.2386   -0.0022 H       1  LIG1        0.0000
     27 H          -3.5472   -3.7614   -0.4822 H       1  LIG1        0.0000
     28 H           3.8459   -3.6137    0.0674 H       1  LIG1        0.0000
     29 H          -1.1854   -5.0697   -0.2405 H       1  LIG1        0.0000
     30 C           3.3463    0.9660   -0.0912 C.2     1  LIG1        0.0000
     31 C          -3.2146   -0.9329   -0.3968 C.2     1  LIG1        0.0000
     32 C           1.0171   -3.2731   -0.0408 C.2     1  LIG1        0.0000
     33 C          -0.8977    3.3048   -0.0375 C.2     1  LIG1        0.0000
     34 H           4.3873    1.2710   -0.0881 H       1  LIG1        0.0000
     35 H          -4.2506   -1.2354   -0.5065 H       1  LIG1        0.0000
     36 H           1.3161   -4.3154   -0.0102 H       1  LIG1        0.0000
     37 H          -1.1986    4.3464    0.0001 H       1  LIG1        0.0000
     38 O           0.0365   -0.0066    1.7049 O.3     1  LIG1        0.0000
     39 S           0.0838   -0.0425   -2.4193 S.3     1  LIG1        0.0000
     40 H           0.1631    1.2893   -2.6151 H       1  LIG1        0.0000
     41 C          -0.5390   -0.1912    3.9760 C.3     1  LIG1        0.0000
     42 C          -1.0623   -0.2289    2.5826 C.3     1  LIG1        0.0000
     43 H          -1.5189   -1.2025    2.3544 H       1  LIG1        0.0000
     44 H          -1.8247    0.5457    2.4214 H       1  LIG1        0.0000
     45 H          -0.0684   -1.0698    4.4056 H       1  LIG1        0.0000
     46 H          -0.3790    0.7610    4.4718 H       1  LIG1        0.0000
@<TRIPOS>BOND
     1    40    39    1
     2    39     1    1
     3    35    31    1
     4    27    19    1
     5    23    15    1
     6    31    11    1
     7    31     7    2
     8    19    11   ar
     9    19    21   ar
    10    11     5   ar
    11    15     7   ar
    12    15    17   ar
    13     7     3   ar
    14    21    29    1
    15    21    13   ar
    16    17    25    1
    17    17     9   ar
    18     5    13   ar
    19     5     1    1
    20     3     9   ar
    21     3     1    1
    22    13    32    1
    23     9    33    1
    24     2     6   ar
    25     2     1    1
    26     2     8   ar
    27     6    30    2
    28     6    14   ar
    29    30    34    1
    30    30    10    1
    31     1     4    1
    32     1    38    1
    33    10     4   ar
    34    10    18   ar
    35     4    12   ar
    36    14    22    1
    37    14    16   ar
    38     8    33    2
    39     8    16   ar
    40    32    36    1
    41    32    12    2
    42    33    37    1
    43    16    24    1
    44    12    20   ar
    45    18    26    1
    46    18    20   ar
    47    20    28    1
    48    38    42    1
    49    43    42    1
    50    44    42    1
    51    42    41    1
    52    41    45    1
    53    41    46    1
@<TRIPOS>MOLECULE
nitroethylene RC B3LYP/LACVP** SPE = -1868.908386 Hartree
 48 54 0 0 0
SMALL
GASTEIGER

@<TRIPOS>ATOM
      1 FE         -0.7383    0.0082    0.0470 Fe      1  LIG1        0.0000
      2 N          -2.5644   -0.6460   -0.5043 N.ar    1  LIG1        0.0000
      3 N          -0.1715   -1.8954    0.4063 N.ar    1  LIG1        0.0000
      4 N           0.9767    0.6564    0.8900 N.ar    1  LIG1        0.0000
      5 N          -1.3988    1.9131   -0.0401 N.ar    1  LIG1        0.0000
      6 C          -2.1965   -3.0615   -0.3324 C.2     1  LIG1        0.0000
      7 C           2.1077   -1.4961    1.2171 C.2     1  LIG1        0.0000
      8 C           0.6083    3.0770    0.7492 C.2     1  LIG1        0.0000
      9 C          -3.6501    1.5099   -0.9210 C.2     1  LIG1        0.0000
     10 C          -2.9665   -1.9453   -0.6435 C.ar    1  LIG1        0.0000
     11 C          -0.8967   -3.0338    0.1496 C.ar    1  LIG1        0.0000
     12 C           1.0578   -2.3236    0.8378 C.ar    1  LIG1        0.0000
     13 C           2.0585   -0.1122    1.2590 C.ar    1  LIG1        0.0000
     14 C           1.3764    1.9663    1.0543 C.ar    1  LIG1        0.0000
     15 C          -0.6865    3.0479    0.2373 C.ar    1  LIG1        0.0000
     16 C          -2.6133    2.3388   -0.5158 C.ar    1  LIG1        0.0000
     17 C          -3.6217    0.1205   -0.9140 C.ar    1  LIG1        0.0000
     18 C          -4.7224   -0.7176   -1.3247 C.ar    1  LIG1        0.0000
     19 C          -4.3148   -2.0047   -1.1547 C.ar    1  LIG1        0.0000
     20 C          -0.1065   -4.2065    0.4366 C.ar    1  LIG1        0.0000
     21 C           1.1097   -3.7656    0.8570 C.ar    1  LIG1        0.0000
     22 C           3.1505    0.7297    1.6818 C.ar    1  LIG1        0.0000
     23 C           2.7262    2.0159    1.5609 C.ar    1  LIG1        0.0000
     24 C          -1.4698    4.2218   -0.0627 C.ar    1  LIG1        0.0000
     25 C          -2.6690    3.7802   -0.5309 C.ar    1  LIG1        0.0000
     26 H          -2.6482   -4.0360   -0.4887 H       1  LIG1        0.0000
     27 H          -0.4533   -5.2251    0.3240 H       1  LIG1        0.0000
     28 H           1.9701   -4.3453    1.1634 H       1  LIG1        0.0000
     29 H           3.0380   -1.9688    1.5119 H       1  LIG1        0.0000
     30 H           4.1136    0.3631    2.0094 H       1  LIG1        0.0000
     31 H           3.2673    2.9268    1.7797 H       1  LIG1        0.0000
     32 H           1.0530    4.0520    0.9215 H       1  LIG1        0.0000
     33 H          -1.1320    5.2403    0.0755 H       1  LIG1        0.0000
     34 H          -3.5216    4.3607   -0.8574 H       1  LIG1        0.0000
     35 H          -4.5600    1.9869   -1.2714 H       1  LIG1        0.0000
     36 H          -5.6741   -0.3523   -1.6871 H       1  LIG1        0.0000
     37 H          -4.8611   -2.9180   -1.3489 H       1  LIG1        0.0000
     38 O          -0.1718    0.0264   -1.4802 O.3     1  LIG1        0.0000
     39 S          -1.3539   -0.0791    2.5318 S.3     1  LIG1        0.0000
     40 H          -1.2531    1.2417    2.7883 H       1  LIG1        0.0000
     41 C           2.7649   -0.3422   -2.3813 C.2     2  LIG2        0.0000
     42 C           3.8677    0.3921   -2.2858 C.2     2  LIG2        0.0000
     43 H           4.0875    1.3109   -2.8117 H       2  LIG2        0.0000
     44 H           1.9482   -0.0392   -3.0244 H       2  LIG2        0.0000
     45 H           2.6466   -1.2455   -1.7958 H       2  LIG2        0.0000
     46 N           4.9537    0.0121   -1.3855 N.pl3   2  LIG2        0.0000
     47 O           5.9252    0.7698   -1.3648 O.2     2  LIG2        0.0000
     48 O           4.8447   -1.0120   -0.7083 O.2     2  LIG2        0.0000
@<TRIPOS>BOND
     1    44    41    1
     2    43    42    1
     3    41    42    2
     4    41    45    1
     5    42    46    1
     6    36    18    1
     7    38     1    1
     8    46    47    2
     9    46    48    2
    10    37    19    1
    11    18    19   ar
    12    18    17   ar
    13    35     9    1
    14    19    10   ar
    15     9    17    2
    16     9    16    1
    17    17     2   ar
    18    34    25    1
    19    10     2   ar
    20    10     6    2
    21    25    16   ar
    22    25    24   ar
    23    16     5   ar
    24     2     1    1
    25    26     6    1
    26     6    11    1
    27    24    33    1
    28    24    15   ar
    29     5     1    1
    30     5    15   ar
    31     1     3    1
    32     1     4    1
    33     1    39    1
    34    11     3   ar
    35    11    20   ar
    36    15     8    2
    37    27    20    1
    38     3    12   ar
    39    20    21   ar
    40     8    32    1
    41     8    14    1
    42    12    21   ar
    43    12     7    2
    44    21    28    1
    45     4    14   ar
    46     4    13   ar
    47    14    23   ar
    48     7    13    1
    49     7    29    1
    50    13    22   ar
    51    23    22   ar
    52    23    31    1
    53    22    30    1
    54    39    40    1
@<TRIPOS>MOLECULE
nitroethylene TS B3LYP/LACVP** SPE = -1868.888872 Hartree imaginary freq = -517.87 cm-1
 48 55 0 0 0
SMALL
GASTEIGER

@<TRIPOS>ATOM
      1 FE         -0.4740    0.0355   -0.1731 Fe      1  LIG1        0.0000
      2 N          -2.0922    1.1504    0.2344 N.ar    1  LIG1        0.0000
      3 N           0.5676    1.6978   -0.6178 N.ar    1  LIG1        0.0000
      4 N           1.1100   -1.0940   -0.7594 N.ar    1  LIG1        0.0000
      5 N          -1.5717   -1.6463    0.0291 N.ar    1  LIG1        0.0000
      6 C          -1.1323    3.3799   -0.0817 C.2     1  LIG1        0.0000
      7 C           2.7157    0.6921   -1.2519 C.2     1  LIG1        0.0000
      8 C           0.1409   -3.3288   -0.4844 C.2     1  LIG1        0.0000
      9 C          -3.7071   -0.6346    0.6869 C.2     1  LIG1        0.0000
     10 C          -2.1677    2.5154    0.2544 C.ar    1  LIG1        0.0000
     11 C           0.1381    2.9941   -0.4836 C.ar    1  LIG1        0.0000
     12 C           1.8825    1.7746   -1.0032 C.ar    1  LIG1        0.0000
     13 C           2.3460   -0.6412   -1.1582 C.ar    1  LIG1        0.0000
     14 C           1.1791   -2.4683   -0.8078 C.ar    1  LIG1        0.0000
     15 C          -1.1380   -2.9427   -0.0951 C.ar    1  LIG1        0.0000
     16 C          -2.8817   -1.7230    0.4251 C.ar    1  LIG1        0.0000
     17 C          -3.3340    0.6981    0.6001 C.ar    1  LIG1        0.0000
     18 C          -4.2141    1.8115    0.8682 C.ar    1  LIG1        0.0000
     19 C          -3.4889    2.9414    0.6538 C.ar    1  LIG1        0.0000
     20 C           1.2053    3.9107   -0.8050 C.ar    1  LIG1        0.0000
     21 C           2.2886    3.1538   -1.1234 C.ar    1  LIG1        0.0000
     22 C           3.2133   -1.7534   -1.4563 C.ar    1  LIG1        0.0000
     23 C           2.4900   -2.8859   -1.2428 C.ar    1  LIG1        0.0000
     24 C          -2.2044   -3.8589    0.2217 C.ar    1  LIG1        0.0000
     25 C          -3.2891   -3.1002    0.5435 C.ar    1  LIG1        0.0000
     26 H          -1.3330    4.4447   -0.0219 H       1  LIG1        0.0000
     27 H           1.1194    4.9886   -0.7766 H       1  LIG1        0.0000
     28 H           3.2798    3.4783   -1.4096 H       1  LIG1        0.0000
     29 H           3.7381    0.9057   -1.5428 H       1  LIG1        0.0000
     30 H           4.2415   -1.6590   -1.7774 H       1  LIG1        0.0000
     31 H           2.7990   -3.9157   -1.3640 H       1  LIG1        0.0000
     32 H           0.3380   -4.3941   -0.5531 H       1  LIG1        0.0000
     33 H          -2.1190   -4.9371    0.1949 H       1  LIG1        0.0000
     34 H          -4.2779   -3.4273    0.8365 H       1  LIG1        0.0000
     35 H          -4.7280   -0.8474    0.9878 H       1  LIG1        0.0000
     36 H          -5.2476    1.7198    1.1743 H       1  LIG1        0.0000
     37 H          -3.8015    3.9729    0.7465 H       1  LIG1        0.0000
     38 O          -0.0469    0.0602    1.4602 O.3     1  LIG1        0.0000
     39 S          -0.9255    0.0246   -2.5646 S.3     1  LIG1        0.0000
     40 H          -1.2910   -1.2689   -2.6785 H       1  LIG1        0.0000
     41 C           1.1308   -0.7507    2.6338 C.3     1  LIG1        0.0000
     42 C           2.3719   -0.9568    2.0673 C.3     1  LIG1        0.0000
     43 H           2.6857   -1.8390    1.5309 H       1  LIG1        0.0000
     44 H           0.5085   -1.6218    2.8018 H       1  LIG1        0.0000
     45 H           1.0285    0.0698    3.3327 H       1  LIG1        0.0000
     46 N           3.3361    0.0920    2.0341 N.pl3   1  LIG1        0.0000
     47 O           4.3994   -0.1508    1.4357 O.2     1  LIG1        0.0000
     48 O           3.0817    1.1722    2.5848 O.2     1  LIG1        0.0000
@<TRIPOS>BOND
     1    40    39    1
     2    39     1    1
     3    30    22    1
     4    29     7    1
     5    22    23   ar
     6    22    13   ar
     7    28    21    1
     8    31    23    1
     9     7    13    1
    10     7    12    2
    11    23    14   ar
    12    13     4   ar
    13    21    12   ar
    14    21    20   ar
    15    12     3   ar
    16    14     4   ar
    17    14     8    2
    18    20    27    1
    19    20    11   ar
    20     4     1    1
    21     3    11   ar
    22     3     1    1
    23    32     8    1
    24     8    15    1
    25    11     6    2
    26     1     5    1
    27     1     2    1
    28     1    38    1
    29    15     5   ar
    30    15    24   ar
    31     6    26    1
    32     6    10    1
    33     5    16   ar
    34    33    24    1
    35    24    25   ar
    36     2    10   ar
    37     2    17   ar
    38    10    19   ar
    39    16    25   ar
    40    16     9    1
    41    25    34    1
    42    17     9    2
    43    17    18   ar
    44    19    37    1
    45    19    18   ar
    46     9    35    1
    47    18    36    1
    48    47    46    2
    49    38    41    1
    50    43    42    1
    51    46    42    1
    52    46    48    2
    53    42    41    1
    54    41    44    1
    55    41    45    1
@<TRIPOS>MOLECULE
nitroethylene Intermediate B3LYP/LACVP** SPE = -1868.917691 Hartree
 48 55 0 0 0
SMALL
GASTEIGER

@<TRIPOS>ATOM
      1 FE         -0.5092    0.0198   -0.2349 Fe      1  LIG1        0.0000
      2 N          -2.3885   -0.1462    0.4802 N.ar    1  LIG1        0.0000
      3 N          -0.6685    2.0209   -0.2113 N.ar    1  LIG1        0.0000
      4 N           1.3659    0.1842   -0.9702 N.ar    1  LIG1        0.0000
      5 N          -0.3960   -1.9804   -0.4014 N.ar    1  LIG1        0.0000
      6 C          -2.9675    2.2314    0.6360 C.2     1  LIG1        0.0000
      7 C           1.5821    2.6305   -0.9905 C.2     1  LIG1        0.0000
      8 C           1.8503   -2.1882   -1.3831 C.2     1  LIG1        0.0000
      9 C          -2.5725   -2.5901    0.5698 C.2     1  LIG1        0.0000
     10 C          -3.2435    0.8803    0.7815 C.ar    1  LIG1        0.0000
     11 C          -1.7650    2.7500    0.1817 C.ar    1  LIG1        0.0000
     12 C           0.3067    2.9328   -0.5356 C.ar    1  LIG1        0.0000
     13 C           2.0578    1.3472   -1.2129 C.ar    1  LIG1        0.0000
     14 C           2.1710   -0.8404   -1.4108 C.ar    1  LIG1        0.0000
     15 C           0.6576   -2.7107   -0.9004 C.ar    1  LIG1        0.0000
     16 C          -1.3401   -2.8932    0.0086 C.ar    1  LIG1        0.0000
     17 C          -3.0560   -1.3069    0.7740 C.ar    1  LIG1        0.0000
     18 C          -4.3684   -1.0026    1.2912 C.ar    1  LIG1        0.0000
     19 C          -4.4867    0.3528    1.2904 C.ar    1  LIG1        0.0000
     20 C          -1.4739    4.1584    0.0940 C.ar    1  LIG1        0.0000
     21 C          -0.1901    4.2718   -0.3445 C.ar    1  LIG1        0.0000
     22 C           3.3475    1.0438   -1.7797 C.ar    1  LIG1        0.0000
     23 C           3.4152   -0.3095   -1.9076 C.ar    1  LIG1        0.0000
     24 C           0.3633   -4.1169   -0.8141 C.ar    1  LIG1        0.0000
     25 C          -0.8704   -4.2298   -0.2464 C.ar    1  LIG1        0.0000
     26 H          -3.7436    2.9360    0.9145 H       1  LIG1        0.0000
     27 H          -2.1718    4.9451    0.3479 H       1  LIG1        0.0000
     28 H           0.3835    5.1704   -0.5288 H       1  LIG1        0.0000
     29 H           2.2442    3.4586   -1.2185 H       1  LIG1        0.0000
     30 H           4.0902    1.7842   -2.0444 H       1  LIG1        0.0000
     31 H           4.2257   -0.9102   -2.2977 H       1  LIG1        0.0000
     32 H           2.5924   -2.8888   -1.7500 H       1  LIG1        0.0000
     33 H           1.0306   -4.9037   -1.1394 H       1  LIG1        0.0000
     34 H          -1.4249   -5.1291   -0.0133 H       1  LIG1        0.0000
     35 H          -3.2147   -3.4197    0.8454 H       1  LIG1        0.0000
     36 H          -5.0928   -1.7437    1.6018 H       1  LIG1        0.0000
     37 H          -5.3274    0.9575    1.6034 H       1  LIG1        0.0000
     38 O           0.0820   -0.0281    1.4845 O.3     1  LIG1        0.0000
     39 S          -1.3524    0.1477   -2.3940 S.3     1  LIG1        0.0000
     40 H          -1.7608   -1.1334   -2.4930 H       1  LIG1        0.0000
     41 C           1.2666   -0.5816    1.9634 C.3     1  LIG1        0.0000
     42 C           2.3728    0.4112    1.9840 C.3     1  LIG1        0.0000
     43 H           2.2339    1.4753    1.8523 H       1  LIG1        0.0000
     44 H           1.5946   -1.4723    1.4058 H       1  LIG1        0.0000
     45 H           1.0920   -0.9375    2.9972 H       1  LIG1        0.0000
     46 N           3.6965   -0.0061    2.1954 N.pl3   1  LIG1        0.0000
     47 O           4.5853    0.8660    2.1436 O.2     1  LIG1        0.0000
     48 O           3.8978   -1.2149    2.4202 O.2     1  LIG1        0.0000
@<TRIPOS>BOND
     1    40    39    1
     2    39     1    1
     3    31    23    1
     4    30    22    1
     5    23    22   ar
     6    23    14   ar
     7    22    13   ar
     8    32     8    1
     9    14     8    2
    10    14     4   ar
    11     8    15    1
    12    29     7    1
    13    13     7    1
    14    13     4   ar
    15    33    24    1
    16     7    12    2
    17     4     1    1
    18    15    24   ar
    19    15     5   ar
    20    24    25   ar
    21    12    21   ar
    22    12     3   ar
    23    28    21    1
    24     5     1    1
    25     5    16   ar
    26    21    20   ar
    27    25    34    1
    28    25    16   ar
    29     1     3    1
    30     1     2    1
    31     1    38    1
    32     3    11   ar
    33    16     9    1
    34    20    11   ar
    35    20    27    1
    36    11     6    2
    37     2    17   ar
    38     2    10   ar
    39     9    17    2
    40     9    35    1
    41     6    10    1
    42     6    26    1
    43    17    18   ar
    44    10    19   ar
    45    19    18   ar
    46    19    37    1
    47    18    36    1
    48    44    41    1
    49    38    41    1
    50    43    42    1
    51    41    42    1
    52    41    45    1
    53    42    46    1
    54    47    46    2
    55    46    48    2
@<TRIPOS>MOLECULE
vinylchloride RC B3LYP/LACVP** SPE = -2124.003925 Hartree
 46 52 0 0 0
SMALL
GASTEIGER

@<TRIPOS>ATOM
      1 FE         -0.6447    0.0103    0.0838 Fe      1  LIG1        0.0000
      2 N          -0.6009    2.0179    0.2878 N.ar    1  LIG1        0.0000
      3 N           1.0532   -0.1216    1.1679 N.ar    1  LIG1        0.0000
      4 N          -2.4860    0.1366   -0.7270 N.ar    1  LIG1        0.0000
      5 N          -0.8116   -2.0002    0.1357 N.ar    1  LIG1        0.0000
      6 C          -1.5188    2.9116   -0.2018 C.ar    1  LIG1        0.0000
      7 C           1.7408   -1.2709    1.4905 C.ar    1  LIG1        0.0000
      8 C           0.4096    2.7730    0.8195 C.ar    1  LIG1        0.0000
      9 C           1.8429    0.9222    1.6009 C.ar    1  LIG1        0.0000
     10 C          -3.1525    1.2800   -1.0763 C.ar    1  LIG1        0.0000
     11 C           0.1222   -2.8956    0.5884 C.ar    1  LIG1        0.0000
     12 C          -3.2771   -0.8993   -1.1385 C.ar    1  LIG1        0.0000
     13 C          -1.8323   -2.7556   -0.3878 C.ar    1  LIG1        0.0000
     14 C          -1.0785    4.2650    0.0350 C.ar    1  LIG1        0.0000
     15 C           2.9752   -0.9422    2.1596 C.ar    1  LIG1        0.0000
     16 C           0.1221    4.1791    0.6697 C.ar    1  LIG1        0.0000
     17 C           3.0371    0.4157    2.2311 C.ar    1  LIG1        0.0000
     18 C          -4.4003    0.9574   -1.7262 C.ar    1  LIG1        0.0000
     19 C          -0.3203   -4.2485    0.3499 C.ar    1  LIG1        0.0000
     20 C          -4.4785   -0.4004   -1.7640 C.ar    1  LIG1        0.0000
     21 C          -1.5367   -4.1615   -0.2515 C.ar    1  LIG1        0.0000
     22 H          -1.6284    5.1512   -0.2523 H       1  LIG1        0.0000
     23 H           3.6893   -1.6691    2.5231 H       1  LIG1        0.0000
     24 H           0.7642    4.9795    1.0122 H       1  LIG1        0.0000
     25 H           3.8133    1.0329    2.6634 H       1  LIG1        0.0000
     26 H          -5.1103    1.6858   -2.0945 H       1  LIG1        0.0000
     27 H           0.2375   -5.1350    0.6207 H       1  LIG1        0.0000
     28 H          -5.2660   -1.0211   -2.1700 H       1  LIG1        0.0000
     29 H          -2.1865   -4.9617   -0.5799 H       1  LIG1        0.0000
     30 C          -2.7082    2.5737   -0.8329 C.2     1  LIG1        0.0000
     31 C           1.3205   -2.5600    1.2057 C.2     1  LIG1        0.0000
     32 C          -2.9810   -2.2489   -0.9761 C.2     1  LIG1        0.0000
     33 C           1.5504    2.2660    1.4342 C.2     1  LIG1        0.0000
     34 H          -3.3433    3.3885   -1.1658 H       1  LIG1        0.0000
     35 H           1.9709   -3.3743    1.5081 H       1  LIG1        0.0000
     36 H          -3.7065   -2.9652   -1.3485 H       1  LIG1        0.0000
     37 H           2.2714    2.9829    1.8139 H       1  LIG1        0.0000
     38 O           0.1018    0.0393   -1.3629 O.3     1  LIG1        0.0000
     39 S          -1.5933   -0.2019    2.4550 S.3     1  LIG1        0.0000
     40 H          -1.1062    0.9560    2.9477 H       1  LIG1        0.0000
     41 C           4.2311   -0.0219   -1.6841 C.2     1  LIG1        0.0000
     42 C           3.2753    0.0856   -2.5978 C.2     1  LIG1        0.0000
     43 H           3.4983    0.1909   -3.6545 H       1  LIG1        0.0000
     44 H           2.2344    0.0685   -2.2835 H       1  LIG1        0.0000
     45 CL          5.9479   -0.0063   -2.0713 Cl      1  LIG1        0.0000
     46 H           4.0542   -0.1287   -0.6204 H       1  LIG1        0.0000
@<TRIPOS>BOND
     1    43    42    1
     2    42    44    1
     3    42    41    2
     4    28    20    1
     5    26    18    1
     6    45    41    1
     7    20    18   ar
     8    20    12   ar
     9    18    10   ar
    10    41    46    1
    11    38     1    1
    12    36    32    1
    13    34    30    1
    14    12    32    2
    15    12     4   ar
    16    10    30    2
    17    10     4   ar
    18    32    13    1
    19    30     6    1
    20     4     1    1
    21    29    21    1
    22    13    21   ar
    23    13     5   ar
    24    22    14    1
    25    21    19   ar
    26     6    14   ar
    27     6     2   ar
    28    14    16   ar
    29     1     5    1
    30     1     2    1
    31     1     3    1
    32     1    39    1
    33     5    11   ar
    34     2     8   ar
    35    19    11   ar
    36    19    27    1
    37    11    31    2
    38    16     8   ar
    39    16    24    1
    40     8    33    2
    41     3     7   ar
    42     3     9   ar
    43    31     7    1
    44    31    35    1
    45    33     9    1
    46    33    37    1
    47     7    15   ar
    48     9    17   ar
    49    15    17   ar
    50    15    23    1
    51    17    25    1
    52    39    40    1
@<TRIPOS>MOLECULE
vinylchloride TS B3LYP/LACVP** SPE = -2123.980799 Hartree imaginary freq = -517.17 cm-1
 46 52 0 0 0
SMALL
GASTEIGER

@<TRIPOS>ATOM
      1 FE          0.3734    0.0604   -0.2070 Fe      1  LIG1        0.0000
      2 N          -0.2118    1.9510   -0.5133 N.ar    1  LIG1        0.0000
      3 N          -1.4375   -0.6041   -0.8879 N.ar    1  LIG1        0.0000
      4 N           2.1889    0.6949    0.3311 N.ar    1  LIG1        0.0000
      5 N           1.0052   -1.8650   -0.1108 N.ar    1  LIG1        0.0000
      6 C           0.5292    3.0843   -0.3017 C.ar    1  LIG1        0.0000
      7 C          -1.8312   -1.9073   -1.0685 C.ar    1  LIG1        0.0000
      8 C          -1.4649    2.3788   -0.8788 C.ar    1  LIG1        0.0000
      9 C          -2.5210    0.1709   -1.2111 C.ar    1  LIG1        0.0000
     10 C           2.6137    1.9930    0.4301 C.ar    1  LIG1        0.0000
     11 C           0.2819   -2.9977   -0.4015 C.ar    1  LIG1        0.0000
     12 C           3.2536   -0.0828    0.7110 C.ar    1  LIG1        0.0000
     13 C           2.2324   -2.2958    0.3148 C.ar    1  LIG1        0.0000
     14 C          -0.2697    4.2594   -0.5558 C.ar    1  LIG1        0.0000
     15 C          -3.2043   -1.9539   -1.5130 C.ar    1  LIG1        0.0000
     16 C          -1.5082    3.8218   -0.9090 C.ar    1  LIG1        0.0000
     17 C          -3.6333   -0.6640   -1.5990 C.ar    1  LIG1        0.0000
     18 C           3.9811    2.0394    0.8964 C.ar    1  LIG1        0.0000
     19 C           1.0823   -4.1727   -0.1559 C.ar    1  LIG1        0.0000
     20 C           4.3767    0.7517    1.0744 C.ar    1  LIG1        0.0000
     21 C           2.2927   -3.7372    0.2900 C.ar    1  LIG1        0.0000
     22 H           0.0857    5.2770   -0.4630 H       1  LIG1        0.0000
     23 H          -3.7507   -2.8618   -1.7320 H       1  LIG1        0.0000
     24 H          -2.3815    4.4053   -1.1686 H       1  LIG1        0.0000
     25 H          -4.6044   -0.2957   -1.9027 H       1  LIG1        0.0000
     26 H           4.5459    2.9482    1.0568 H       1  LIG1        0.0000
     27 H           0.7464   -5.1896   -0.3100 H       1  LIG1        0.0000
     28 H           5.3359    0.3800    1.4099 H       1  LIG1        0.0000
     29 H           3.1561   -4.3230    0.5765 H       1  LIG1        0.0000
     30 C           1.8500    3.1111    0.1260 C.2     1  LIG1        0.0000
     31 C          -1.0358   -3.0231   -0.8412 C.2     1  LIG1        0.0000
     32 C           3.2795   -1.4691    0.7105 C.2     1  LIG1        0.0000
     33 C          -2.5410    1.5604   -1.1946 C.2     1  LIG1        0.0000
     34 H           2.3150    4.0837    0.2505 H       1  LIG1        0.0000
     35 H          -1.4797   -3.9967   -1.0238 H       1  LIG1        0.0000
     36 H           4.1993   -1.9499    1.0276 H       1  LIG1        0.0000
     37 H          -3.4707    2.0480   -1.4698 H       1  LIG1        0.0000
     38 O          -0.1485    0.0854    1.4108 O.3     1  LIG1        0.0000
     39 S           0.9678   -0.1778   -2.5448 S.3     1  LIG1        0.0000
     40 H           0.1252    0.7526   -3.0395 H       1  LIG1        0.0000
     41 C          -2.6065   -0.7755    2.1761 C.3     1  LIG1        0.0000
     42 C          -1.2952   -1.1093    2.4020 C.3     1  LIG1        0.0000
     43 H          -0.8142   -0.8064    3.3238 H       1  LIG1        0.0000
     44 H          -0.9217   -2.0079    1.9258 H       1  LIG1        0.0000
     45 CL         -3.4044    0.4803    3.0734 Cl      1  LIG1        0.0000
     46 H          -3.2036   -1.1707    1.3650 H       1  LIG1        0.0000
@<TRIPOS>BOND
     1    40    39    1
     2    39     1    1
     3    25    17    1
     4    23    15    1
     5    17    15   ar
     6    17     9   ar
     7    15     7   ar
     8    37    33    1
     9     9    33    1
    10     9     3   ar
    11    33     8    2
    12    24    16    1
    13     7     3   ar
    14     7    31    2
    15    35    31    1
    16    16     8   ar
    17    16    14   ar
    18     3     1    1
    19     8     2   ar
    20    31    11    1
    21    14    22    1
    22    14     6   ar
    23     2     6   ar
    24     2     1    1
    25    11    19   ar
    26    11     5   ar
    27    27    19    1
    28     6    30    2
    29     1     5    1
    30     1     4    1
    31     1    38    1
    32    19    21   ar
    33     5    13   ar
    34    30    34    1
    35    30    10    1
    36    21    13   ar
    37    21    29    1
    38    13    32    1
    39     4    10   ar
    40     4    12   ar
    41    10    18   ar
    42    32    12    2
    43    32    36    1
    44    12    20   ar
    45    18    26    1
    46    18    20   ar
    47    20    28    1
    48    46    41    1
    49    44    42    1
    50    41    42    1
    51    41    45    1
    52    42    43    1
@<TRIPOS>MOLECULE
vinylchloride Intermediate B3LYP/LACVP** SPE = -2124.011273 Hartree
 46 53 0 0 0
SMALL
GASTEIGER

@<TRIPOS>ATOM
      1 FE         -0.2230    0.0639   -0.3560 Fe      1  LIG1        0.0000
      2 N          -1.8772    1.1183    0.0812 N.ar    1  LIG1        0.0000
      3 N          -1.2708   -1.6523   -0.1469 N.ar    1  LIG1        0.0000
      4 N           0.8127    1.7778   -0.5929 N.ar    1  LIG1        0.0000
      5 N           1.3971   -0.9891   -0.9116 N.ar    1  LIG1        0.0000
      6 C          -1.9912    2.4854    0.1184 C.ar    1  LIG1        0.0000
      7 C          -0.8261   -2.9232   -0.4202 C.ar    1  LIG1        0.0000
      8 C          -3.0953    0.6173    0.4737 C.ar    1  LIG1        0.0000
      9 C          -2.5750   -1.7768    0.2596 C.ar    1  LIG1        0.0000
     10 C           0.3278    3.0522   -0.4683 C.ar    1  LIG1        0.0000
     11 C           1.4750   -2.3519   -1.0803 C.ar    1  LIG1        0.0000
     12 C           2.1420    1.8977   -0.9041 C.ar    1  LIG1        0.0000
     13 C           2.6452   -0.4911   -1.1930 C.ar    1  LIG1        0.0000
     14 C          -3.3228    2.8568    0.5276 C.ar    1  LIG1        0.0000
     15 C          -1.8767   -3.8761   -0.1630 C.ar    1  LIG1        0.0000
     16 C          -4.0044    1.7004    0.7541 C.ar    1  LIG1        0.0000
     17 C          -2.9578   -3.1670    0.2645 C.ar    1  LIG1        0.0000
     18 C           1.3855    4.0080   -0.6999 C.ar    1  LIG1        0.0000
     19 C           2.8087   -2.7192   -1.4812 C.ar    1  LIG1        0.0000
     20 C           2.5112    3.2924   -0.9632 C.ar    1  LIG1        0.0000
     21 C           3.5346   -1.5681   -1.5441 C.ar    1  LIG1        0.0000
     22 H          -3.6697    3.8762    0.6333 H       1  LIG1        0.0000
     23 H          -1.7819   -4.9454   -0.2980 H       1  LIG1        0.0000
     24 H          -5.0281    1.5731    1.0807 H       1  LIG1        0.0000
     25 H          -3.9351   -3.5335    0.5498 H       1  LIG1        0.0000
     26 H           1.2618    5.0820   -0.6579 H       1  LIG1        0.0000
     27 H           3.1330   -3.7325   -1.6777 H       1  LIG1        0.0000
     28 H           3.5058    3.6549   -1.1866 H       1  LIG1        0.0000
     29 H           4.5766   -1.4418   -1.8065 H       1  LIG1        0.0000
     30 C          -0.9777    3.3935   -0.1508 C.2     1  LIG1        0.0000
     31 C           0.4457   -3.2568   -0.8621 C.2     1  LIG1        0.0000
     32 C           3.0074    0.8488   -1.1716 C.2     1  LIG1        0.0000
     33 C          -3.4265   -0.7260    0.5720 C.2     1  LIG1        0.0000
     34 H          -1.2191    4.4488   -0.0826 H       1  LIG1        0.0000
     35 H           0.6569   -4.3064   -1.0363 H       1  LIG1        0.0000
     36 H           4.0361    1.0937   -1.4131 H       1  LIG1        0.0000
     37 H          -4.4354   -0.9726    0.8852 H       1  LIG1        0.0000
     38 O           0.2643    0.0360    1.3808 O.3     1  LIG1        0.0000
     39 S          -0.7797    0.0847   -2.6160 S.3     1  LIG1        0.0000
     40 H          -2.1106    0.2288   -2.4538 H       1  LIG1        0.0000
     41 C           1.0285   -0.5953    3.5212 C.3     1  LIG1        0.0000
     42 C           0.6546   -1.0754    2.1628 C.3     1  LIG1        0.0000
     43 H           1.4962   -1.6020    1.6932 H       1  LIG1        0.0000
     44 H          -0.1819   -1.7843    2.2572 H       1  LIG1        0.0000
     45 CL          2.6270   -0.0143    3.8254 Cl      1  LIG1        0.0000
     46 H           0.2866   -0.2358    4.2254 H       1  LIG1        0.0000
@<TRIPOS>BOND
     1    39    40    1
     2    39     1    1
     3    29    21    1
     4    27    19    1
     5    21    19   ar
     6    21    13   ar
     7    19    11   ar
     8    36    32    1
     9    13    32    1
    10    13     5   ar
    11    28    20    1
    12    32    12    2
    13    11     5   ar
    14    11    31    2
    15    35    31    1
    16    20    12   ar
    17    20    18   ar
    18     5     1    1
    19    12     4   ar
    20    31     7    1
    21    18    26    1
    22    18    10   ar
    23     4    10   ar
    24     4     1    1
    25    10    30    2
    26     7    15   ar
    27     7     3   ar
    28     1     3    1
    29     1     2    1
    30     1    38    1
    31    23    15    1
    32    15    17   ar
    33    30    34    1
    34    30     6    1
    35     3     9   ar
    36     2     6   ar
    37     2     8   ar
    38     6    14   ar
    39     9    17   ar
    40     9    33    1
    41    17    25    1
    42     8    33    2
    43     8    16   ar
    44    14    22    1
    45    14    16   ar
    46    33    37    1
    47    16    24    1
    48    38    42    1
    49    43    42    1
    50    42    44    1
    51    42    41    1
    52    41    45    1
    53    41    46    1
@<TRIPOS>MOLECULE
CPD1 SPE = -2726.447747 ZPE = 0.286982
 40 47 0 0 0
SMALL
GASTEIGER

@<TRIPOS>ATOM
      1 H          -0.2813    1.3262    2.4809 H       1  LIG1        0.0000
      2 S          -0.3434   -0.0082    2.2910 S.3     1  LIG1        0.0000
      3 O           0.0757   -0.0058   -1.8786 O.3     1  LIG1        0.0000
      4 H           1.2678   -4.3328   -0.0373 H       1  LIG1        0.0000
      5 H          -1.2165    4.3235   -0.1418 H       1  LIG1        0.0000
      6 H          -4.3009   -1.2491   -0.2461 H       1  LIG1        0.0000
      7 H           4.3541    1.2360   -0.0612 H       1  LIG1        0.0000
      8 C           0.9678   -3.2899   -0.0594 C.2     1  LIG1        0.0000
      9 C          -0.9176    3.2801   -0.1283 C.2     1  LIG1        0.0000
     10 C          -3.2587   -0.9493   -0.2032 C.2     1  LIG1        0.0000
     11 C           3.3107    0.9370   -0.0728 C.2     1  LIG1        0.0000
     12 H          -3.7507    3.6323   -0.1257 H       1  LIG1        0.0000
     13 H           1.2982    5.0840   -0.1291 H       1  LIG1        0.0000
     14 H          -5.0604    1.2627   -0.1802 H       1  LIG1        0.0000
     15 H           3.6694    3.7691   -0.0893 H       1  LIG1        0.0000
     16 H          -1.2436   -5.0951   -0.0882 H       1  LIG1        0.0000
     17 H           3.8010   -3.6468   -0.0100 H       1  LIG1        0.0000
     18 H          -3.6125   -3.7819   -0.1935 H       1  LIG1        0.0000
     19 H           5.1159   -1.2745   -0.0225 H       1  LIG1        0.0000
     20 C          -3.3363    2.6329   -0.1308 C.ar    1  LIG1        0.0000
     21 C           1.4791    4.0174   -0.1194 C.ar    1  LIG1        0.0000
     22 C          -3.9939    1.4430   -0.1592 C.ar    1  LIG1        0.0000
     23 C           2.6689    3.3574   -0.0995 C.ar    1  LIG1        0.0000
     24 C          -1.4241   -4.0287   -0.1125 C.ar    1  LIG1        0.0000
     25 C           3.3900   -2.6463   -0.0334 C.ar    1  LIG1        0.0000
     26 C          -2.6125   -3.3698   -0.1664 C.ar    1  LIG1        0.0000
     27 C           4.0495   -1.4563   -0.0399 C.ar    1  LIG1        0.0000
     28 C          -1.9260    2.3309   -0.1167 C.ar    1  LIG1        0.0000
     29 C           0.4476    3.0081   -0.1224 C.ar    1  LIG1        0.0000
     30 C          -2.9890    0.4085   -0.1572 C.ar    1  LIG1        0.0000
     31 C           2.3598    1.9480   -0.0919 C.ar    1  LIG1        0.0000
     32 C          -0.3918   -3.0204   -0.0927 C.ar    1  LIG1        0.0000
     33 C           1.9806   -2.3359   -0.0616 C.ar    1  LIG1        0.0000
     34 C          -2.3052   -1.9596   -0.1712 C.ar    1  LIG1        0.0000
     35 C           3.0393   -0.4258   -0.0699 C.ar    1  LIG1        0.0000
     36 N          -1.7307    0.9666   -0.1148 N.ar    1  LIG1        0.0000
     37 N           1.0016    1.7570   -0.1013 N.ar    1  LIG1        0.0000
     38 N          -0.9497   -1.7656   -0.1231 N.ar    1  LIG1        0.0000
     39 N           1.7888   -0.9825   -0.0821 N.ar    1  LIG1        0.0000
     40 FE          0.0326   -0.0074   -0.2532 Fe      1  LIG1        0.0000
@<TRIPOS>BOND
     1     3    40    1
     2    40    38    1
     3    40    36    1
     4    40    37    1
     5    40    39    1
     6    40     2    1
     7     6    10    1
     8    10    34    2
     9    10    30    1
    10    18    26    1
    11    14    22    1
    12    34    26   ar
    13    34    38   ar
    14    26    24   ar
    15    22    30   ar
    16    22    20   ar
    17    30    36   ar
    18     5     9    1
    19    20    12    1
    20    20    28   ar
    21    13    21    1
    22     9    29    1
    23     9    28    2
    24    38    32   ar
    25    29    21   ar
    26    29    37   ar
    27    21    23   ar
    28    28    36   ar
    29    24    32   ar
    30    24    16    1
    31    37    31   ar
    32    23    31   ar
    33    23    15    1
    34    32     8    2
    35    31    11    1
    36    39    35   ar
    37    39    33   ar
    38    11    35    2
    39    11     7    1
    40    35    27   ar
    41    33     8    1
    42    33    25   ar
    43     8     4    1
    44    27    25   ar
    45    27    19    1
    46    25    17    1
    47     2     1    1
@<TRIPOS>MOLECULE
cyclohexene SPE = -234.7294156 ZPE = 0.146449
 16 16 0 0 0
SMALL
GASTEIGER

@<TRIPOS>ATOM
      1 C          -0.6982   -1.1924   -0.3184 C.3     1  LIG1       -0.0493
      2 C           0.6981   -1.1925    0.3182 C.3     1  LIG1       -0.0493
      3 C           1.4982    0.0478   -0.1105 C.3     1  LIG1       -0.0348
      4 H           1.2440   -2.1054    0.0539 H       1  LIG1        0.0268
      5 H           0.5932   -1.1929    1.4114 H       1  LIG1        0.0268
      6 C           0.6660    1.3059   -0.0567 C.2     1  LIG1       -0.0879
      7 H           1.8876   -0.0887   -1.1315 H       1  LIG1        0.0307
      8 H           2.3857    0.1641    0.5256 H       1  LIG1        0.0307
      9 C          -0.6660    1.3060    0.0566 C.2     1  LIG1       -0.0879
     10 C          -1.4982    0.0479    0.1107 C.3     1  LIG1       -0.0348
     11 H          -1.2441   -2.1053   -0.0543 H       1  LIG1        0.0268
     12 H          -0.5933   -1.1925   -1.4115 H       1  LIG1        0.0268
     13 H          -2.3859    0.1641   -0.5251 H       1  LIG1        0.0307
     14 H          -1.8872   -0.0888    1.1318 H       1  LIG1        0.0307
     15 H          -1.1984    2.2543    0.1119 H       1  LIG1        0.0569
     16 H           1.1984    2.2542   -0.1122 H       1  LIG1        0.0569
@<TRIPOS>BOND
     1    12     1    1
     2     7     3    1
     3    13    10    1
     4     1    11    1
     5     1    10    1
     6     1     2    1
     7    16     6    1
     8     3     6    1
     9     3     2    1
    10     3     8    1
    11     6     9    2
    12     4     2    1
    13     9    10    1
    14     9    15    1
    15    10    14    1
    16     2     5    1
@<TRIPOS>MOLECULE
cyclohexene TS SPE = -2961.156022 ZPE = 0.433865
 56 63 0 0 0
SMALL
GASTEIGER

@<TRIPOS>ATOM
      1 FE          0.3996    0.1023   -0.4713 Fe      1  LIG1        0.0000
      2 N          -0.1436    2.0186   -0.6913 N.ar    1  LIG1        0.0000
      3 N          -1.3632   -0.4852   -1.3389 N.ar    1  LIG1        0.0000
      4 N           2.1549    0.6678    0.2871 N.ar    1  LIG1        0.0000
      5 N           0.9992   -1.8347   -0.4381 N.ar    1  LIG1        0.0000
      6 C           0.5899    3.1222   -0.3434 C.ar    1  LIG1        0.0000
      7 C          -1.7477   -1.7657   -1.6389 C.ar    1  LIG1        0.0000
      8 C          -1.3545    2.4889   -1.1411 C.ar    1  LIG1        0.0000
      9 C          -2.4043    0.3253   -1.7002 C.ar    1  LIG1        0.0000
     10 C           2.5830    1.9515    0.5048 C.ar    1  LIG1        0.0000
     11 C           0.2925   -2.9299   -0.8744 C.ar    1  LIG1        0.0000
     12 C           3.1718   -0.1512    0.7124 C.ar    1  LIG1        0.0000
     13 C           2.1739   -2.3138    0.0724 C.ar    1  LIG1        0.0000
     14 C          -0.1686    4.3243   -0.5947 C.ar    1  LIG1        0.0000
     15 C          -3.0793   -1.7644   -2.2004 C.ar    1  LIG1        0.0000
     16 C          -1.3756    3.9314   -1.0845 C.ar    1  LIG1        0.0000
     17 C          -3.4883   -0.4661   -2.2362 C.ar    1  LIG1        0.0000
     18 C           3.9015    1.9442    1.0967 C.ar    1  LIG1        0.0000
     19 C           1.0535   -4.1331   -0.6373 C.ar    1  LIG1        0.0000
     20 C           4.2642    0.6412    1.2298 C.ar    1  LIG1        0.0000
     21 C           2.2197   -3.7514   -0.0475 C.ar    1  LIG1        0.0000
     22 H           0.1898    5.3281   -0.4081 H       1  LIG1        0.0000
     23 H          -3.6123   -2.6485   -2.5249 H       1  LIG1        0.0000
     24 H          -2.2135    4.5460   -1.3865 H       1  LIG1        0.0000
     25 H          -4.4258   -0.0641   -2.5975 H       1  LIG1        0.0000
     26 H           4.4599    2.8315    1.3643 H       1  LIG1        0.0000
     27 H           0.7223   -5.1310   -0.8933 H       1  LIG1        0.0000
     28 H           5.1844    0.2336    1.6273 H       1  LIG1        0.0000
     29 H           3.0447   -4.3709    0.2789 H       1  LIG1        0.0000
     30 C           1.8662    3.1000    0.2038 C.2     1  LIG1        0.0000
     31 C          -0.9813   -2.9056   -1.4283 C.2     1  LIG1        0.0000
     32 C           3.1861   -1.5344    0.6237 C.2     1  LIG1        0.0000
     33 C          -2.4094    1.7122   -1.5999 C.2     1  LIG1        0.0000
     34 H           2.3306    4.0543    0.4297 H       1  LIG1        0.0000
     35 H          -1.4144   -3.8576   -1.7183 H       1  LIG1        0.0000
     36 H           4.0670   -2.0493    0.9934 H       1  LIG1        0.0000
     37 H          -3.3032    2.2331   -1.9287 H       1  LIG1        0.0000
     38 O          -0.3024    0.0056    1.0869 O.3     1  LIG1        0.0000
     39 S           1.2169    0.0282   -2.7161 S.3     1  LIG1        0.0000
     40 H           0.4294    0.9979   -3.2256 H       1  LIG1        0.0000
     41 C          -2.6931   -0.7405    1.7396 C.3     2  LIG2        0.0000
     42 C          -1.4403   -1.2878    1.9906 C.3     2  LIG2        0.0000
     43 C          -0.8184   -1.2132    3.3717 C.3     2  LIG2        0.0000
     44 H          -1.1169   -2.1100    1.3621 H       2  LIG2        0.0000
     45 C          -3.2957    0.3225    2.6054 C.3     2  LIG2        0.0000
     46 H          -3.2151   -1.0136    0.8268 H       2  LIG2        0.0000
     47 C          -1.6775   -0.4287    4.3807 C.3     2  LIG2        0.0000
     48 C          -2.3383    0.7849    3.7144 C.3     2  LIG2        0.0000
     49 H          -1.0590   -0.1186    5.2301 H       2  LIG2        0.0000
     50 H          -2.4615   -1.0824    4.7874 H       2  LIG2        0.0000
     51 H          -2.8795    1.3881    4.4519 H       2  LIG2        0.0000
     52 H          -1.5627    1.4227    3.2746 H       2  LIG2        0.0000
     53 H           0.1727   -0.7583    3.2735 H       2  LIG2        0.0000
     54 H          -0.6539   -2.2377    3.7309 H       2  LIG2        0.0000
     55 H          -4.2323   -0.0590    3.0467 H       2  LIG2        0.0000
     56 H          -3.6008    1.1703    1.9749 H       2  LIG2        0.0000
@<TRIPOS>BOND
     1    40    39    1
     2    39     1    1
     3    25    17    1
     4    23    15    1
     5    17    15   ar
     6    17     9   ar
     7    15     7   ar
     8    37    33    1
     9    35    31    1
    10     9    33    1
    11     9     3   ar
    12     7    31    2
    13     7     3   ar
    14    33     8    2
    15    31    11    1
    16    24    16    1
    17     3     1    1
    18     8    16   ar
    19     8     2   ar
    20    16    14   ar
    21    27    19    1
    22    11    19   ar
    23    11     5   ar
    24     2     1    1
    25     2     6   ar
    26    19    21   ar
    27    14    22    1
    28    14     6   ar
    29     1     5    1
    30     1     4    1
    31     1    38    1
    32     5    13   ar
    33     6    30    2
    34    21    13   ar
    35    21    29    1
    36    13    32    1
    37    30    34    1
    38    30    10    1
    39     4    10   ar
    40     4    12   ar
    41    10    18   ar
    42    32    12    2
    43    32    36    1
    44    12    20   ar
    45    46    41    1
    46    18    20   ar
    47    18    26    1
    48    20    28    1
    49    44    42    1
    50    41    42    1
    51    41    45    1
    52    56    45    1
    53    42    43    1
    54    45    55    1
    55    45    48    1
    56    53    43    1
    57    52    48    1
    58    43    54    1
    59    43    47    1
    60    48    47    1
    61    48    51    1
    62    47    50    1
    63    47    49    1
@<TRIPOS>MOLECULE
dehydrocamphor SPE = -464.8415077 ZPE = 0.216926
 25 26 0 0 0
SMALL
GASTEIGER

@<TRIPOS>ATOM
      1 C          -0.8771   -1.4062    0.8591 C.3     1  LIG1        0.0135
      2 C          -1.4230   -0.0787    0.2939 C.2     1  LIG1        0.1440
      3 C          -0.2591    0.5762   -0.5044 C.3     1  LIG1        0.0498
      4 O          -2.5359    0.3745    0.4395 O.2     1  LIG1       -0.2965
      5 C          -0.1408   -0.3981   -1.6804 C.2     1  LIG1       -0.0742
      6 C           0.9636    0.1147    0.3815 C.3     1  LIG1       -0.0127
      7 C          -0.4649    2.0444   -0.8229 C.3     1  LIG1       -0.0488
      8 C           0.3645   -1.5513   -1.2255 C.2     1  LIG1       -0.0830
      9 C           0.5658   -1.4037    0.2796 C.3     1  LIG1       -0.0099
     10 H          -1.4775   -2.2573    0.5290 H       1  LIG1        0.0348
     11 H          -0.9165   -1.3806    1.9526 H       1  LIG1        0.0348
     12 H           0.5083   -2.4703   -1.7832 H       1  LIG1        0.0572
     13 H          -0.5039   -0.1784   -2.6786 H       1  LIG1        0.0579
     14 C           0.9415    0.6871    1.8102 C.3     1  LIG1       -0.0581
     15 C           2.3388    0.4270   -0.2269 C.3     1  LIG1       -0.0581
     16 H           1.2540   -2.1093    0.7521 H       1  LIG1        0.0353
     17 H          -0.0318    0.6193    2.3020 H       1  LIG1        0.0236
     18 H           1.2202    1.7458    1.7967 H       1  LIG1        0.0236
     19 H           1.6725    0.1675    2.4398 H       1  LIG1        0.0236
     20 H           2.4421    0.0523   -1.2461 H       1  LIG1        0.0236
     21 H           3.1287   -0.0266    0.3828 H       1  LIG1        0.0236
     22 H           2.5188    1.5073   -0.2393 H       1  LIG1        0.0236
     23 H          -1.4221    2.1892   -1.3326 H       1  LIG1        0.0242
     24 H           0.3321    2.4299   -1.4661 H       1  LIG1        0.0242
     25 H          -0.4932    2.6475    0.0895 H       1  LIG1        0.0242
@<TRIPOS>BOND
     1    13     5    1
     2    12     8    1
     3     5     8    2
     4     5     3    1
     5    24     7    1
     6    23     7    1
     7    20    15    1
     8     8     9    1
     9     7     3    1
    10     7    25    1
    11     3     2    1
    12     3     6    1
    13    22    15    1
    14    15     6    1
    15    15    21    1
    16     9     6    1
    17     9    16    1
    18     9     1    1
    19     2     4    2
    20     2     1    1
    21     6    14    1
    22    10     1    1
    23     1    11    1
    24    18    14    1
    25    14    17    1
    26    14    19    1
@<TRIPOS>MOLECULE
dehydrocamphor TS SPE = -3191.270524 ZPE = 0.504105
 65 73 0 0 0
SMALL
GASTEIGER

@<TRIPOS>ATOM
      1 FE          1.2704    0.0358    0.2457 Fe      1  LIG1        0.0000
      2 N           1.4084   -1.9461    0.4837 N.ar    1  LIG1        0.0000
      3 N           0.2425    0.1747    2.0151 N.ar    1  LIG1        0.0000
      4 N           2.3640   -0.0745   -1.4192 N.ar    1  LIG1        0.0000
      5 N           1.3039    2.0642    0.1562 N.ar    1  LIG1        0.0000
      6 C           2.0352   -2.8333   -0.3538 C.ar    1  LIG1        0.0000
      7 C          -0.1897    1.3157    2.6410 C.ar    1  LIG1        0.0000
      8 C           0.8394   -2.7001    1.4822 C.ar    1  LIG1        0.0000
      9 C          -0.1695   -0.8704    2.7980 C.ar    1  LIG1        0.0000
     10 C           2.8532   -1.2064   -2.0134 C.ar    1  LIG1        0.0000
     11 C           0.7251    2.9523    1.0317 C.ar    1  LIG1        0.0000
     12 C           2.7549    0.9732   -2.2159 C.ar    1  LIG1        0.0000
     13 C           1.8443    2.8186   -0.8495 C.ar    1  LIG1        0.0000
     14 C           1.8683   -4.1814    0.1330 C.ar    1  LIG1        0.0000
     15 C          -0.9075    0.9795    3.8496 C.ar    1  LIG1        0.0000
     16 C           1.1241   -4.0990    1.2688 C.ar    1  LIG1        0.0000
     17 C          -0.8967   -0.3781    3.9457 C.ar    1  LIG1        0.0000
     18 C           3.5602   -0.8695   -3.2284 C.ar    1  LIG1        0.0000
     19 C           0.9224    4.3044    0.5686 C.ar    1  LIG1        0.0000
     20 C           3.4969    0.4821   -3.3552 C.ar    1  LIG1        0.0000
     21 C           1.6166    4.2213   -0.6004 C.ar    1  LIG1        0.0000
     22 H           2.2717   -5.0632   -0.3470 H       1  LIG1        0.0000
     23 H          -1.3476    1.7003    4.5262 H       1  LIG1        0.0000
     24 H           0.7911   -4.8993    1.9164 H       1  LIG1        0.0000
     25 H          -1.3250   -1.0027    4.7185 H       1  LIG1        0.0000
     26 H           4.0400   -1.5875   -3.8802 H       1  LIG1        0.0000
     27 H           0.5673    5.1890    1.0807 H       1  LIG1        0.0000
     28 H           3.9148    1.1076   -4.1329 H       1  LIG1        0.0000
     29 H           1.9497    5.0240   -1.2449 H       1  LIG1        0.0000
     30 C           2.7123   -2.4956   -1.5177 C.2     1  LIG1        0.0000
     31 C           0.0295    2.6099    2.1864 C.2     1  LIG1        0.0000
     32 C           2.5167    2.3141   -1.9594 C.2     1  LIG1        0.0000
     33 C           0.0964   -2.2105    2.5473 C.2     1  LIG1        0.0000
     34 H           3.1597   -3.3032   -2.0879 H       1  LIG1        0.0000
     35 H          -0.3740    3.4226    2.7822 H       1  LIG1        0.0000
     36 H           2.8953    3.0330   -2.6791 H       1  LIG1        0.0000
     37 H          -0.2902   -2.9358    3.2562 H       1  LIG1        0.0000
     38 O          -0.1658   -0.0485   -0.6555 O.3     1  LIG1        0.0000
     39 S           3.1927    0.1283    1.7075 S.3     1  LIG1        0.0000
     40 H           3.2610    1.4655    1.8681 H       1  LIG1        0.0000
     41 C          -2.7746    0.1506    0.4560 C.3     2  LIG2        0.0000
     42 C          -1.9581    0.8120   -0.4484 C.3     2  LIG2        0.0000
     43 C          -2.6111    0.6174   -1.8098 C.3     2  LIG2        0.0000
     44 H          -1.3930    1.7018   -0.2072 H       2  LIG2        0.0000
     45 C          -3.9083   -0.5083   -0.2965 C.3     2  LIG2        0.0000
     46 H          -2.7360    0.2343    1.5357 H       2  LIG2        0.0000
     47 H          -1.9636    0.7916   -2.6710 H       2  LIG2        0.0000
     48 C          -3.8671    1.5318   -1.7277 C.3     2  LIG2        0.0000
     49 C          -3.2394   -0.8183   -1.6893 C.3     2  LIG2        0.0000
     50 C          -2.2246   -1.9691   -1.6357 C.3     2  LIG2        0.0000
     51 C          -4.2570   -1.1488   -2.7989 C.3     2  LIG2        0.0000
     52 C          -4.7177    0.7784   -0.6869 C.2     2  LIG2        0.0000
     53 C          -4.7288   -1.5631    0.4202 C.3     2  LIG2        0.0000
     54 H          -4.4166    1.6100   -2.6706 H       2  LIG2        0.0000
     55 H          -3.6488    2.5509   -1.3952 H       2  LIG2        0.0000
     56 O          -5.7950    1.1036   -0.2440 O.2     2  LIG2        0.0000
     57 H          -4.1024   -2.4011    0.7397 H       2  LIG2        0.0000
     58 H          -5.5240   -1.9506   -0.2238 H       2  LIG2        0.0000
     59 H          -5.2101   -1.1330    1.3037 H       2  LIG2        0.0000
     60 H          -5.1089   -0.4661   -2.8513 H       2  LIG2        0.0000
     61 H          -4.6622   -2.1546   -2.6488 H       2  LIG2        0.0000
     62 H          -3.7620   -1.1419   -3.7765 H       2  LIG2        0.0000
     63 H          -1.4676   -1.8279   -0.8664 H       2  LIG2        0.0000
     64 H          -2.7448   -2.9175   -1.4593 H       2  LIG2        0.0000
     65 H          -1.7057   -2.0533   -2.5972 H       2  LIG2        0.0000
@<TRIPOS>BOND
     1    28    20    1
     2    26    18    1
     3    62    51    1
     4    20    18   ar
     5    20    12   ar
     6    18    10   ar
     7    60    51    1
     8    51    61    1
     9    51    49    1
    10    36    32    1
    11    47    43    1
    12    54    48    1
    13    65    50    1
    14    12    32    2
    15    12     4   ar
    16    34    30    1
    17    10    30    2
    18    10     4   ar
    19    32    13    1
    20    43    48    1
    21    43    49    1
    22    43    42    1
    23    48    55    1
    24    48    52    1
    25    49    50    1
    26    49    45    1
    27    50    64    1
    28    50    63    1
    29    30     6    1
    30     4     1    1
    31    29    21    1
    32    13    21   ar
    33    13     5   ar
    34    52    45    1
    35    52    56    2
    36    38     1    1
    37    21    19   ar
    38    42    44    1
    39    42    41    1
    40     6    14   ar
    41     6     2   ar
    42    22    14    1
    43    45    53    1
    44    45    41    1
    45    58    53    1
    46    14    16   ar
    47     5     1    1
    48     5    11   ar
    49     1     2    1
    50     1    39    1
    51     1     3    1
    52    53    57    1
    53    53    59    1
    54    41    46    1
    55     2     8   ar
    56    19    11   ar
    57    19    27    1
    58    11    31    2
    59    16     8   ar
    60    16    24    1
    61     8    33    2
    62    39    40    1
    63     3     7   ar
    64     3     9   ar
    65    31     7    1
    66    31    35    1
    67    33     9    1
    68    33    37    1
    69     7    15   ar
    70     9    17   ar
    71    15    17   ar
    72    15    23    1
    73    17    25    1
@<TRIPOS>MOLECULE
5-methylenecamphor SPE = -504.1788973 ZPE = 0.245216
 28 29 0 0 0
SMALL
GASTEIGER

@<TRIPOS>ATOM
      1 C          -0.0213   -1.1383   -1.4321 C.3     1  LIG1        0.0134
      2 C           1.0067   -1.1781   -0.2891 C.2     1  LIG1        0.1406
      3 C           0.6386   -0.0378    0.6747 C.3     1  LIG1        0.0355
      4 O           1.9215   -1.9628   -0.1659 O.2     1  LIG1       -0.2968
      5 C          -0.6904   -0.5423    1.3301 C.3     1  LIG1       -0.0191
      6 C           0.1071    1.0382   -0.3461 C.3     1  LIG1       -0.0157
      7 C           1.7430    0.3301    1.6478 C.3     1  LIG1       -0.0520
      8 C          -0.9190    0.0523   -1.0085 C.3     1  LIG1       -0.0074
      9 H          -0.5579   -2.0883   -1.5102 H       1  LIG1        0.0348
     10 H           0.4901   -0.9712   -2.3857 H       1  LIG1        0.0348
     11 C          -3.0115   -0.6957    0.2526 C.2     1  LIG1       -0.0991
     12 C           1.1944    1.5577   -1.3033 C.3     1  LIG1       -0.0584
     13 C          -0.5703    2.2541    0.3047 C.3     1  LIG1       -0.0584
     14 H           1.8080    0.7673   -1.7439 H       1  LIG1        0.0235
     15 H           1.8743    2.2343   -0.7751 H       1  LIG1        0.0235
     16 H           0.7426    2.1263   -2.1237 H       1  LIG1        0.0235
     17 H          -1.4135    1.9848    0.9440 H       1  LIG1        0.0235
     18 H          -0.9545    2.9252   -0.4719 H       1  LIG1        0.0235
     19 H           0.1462    2.8258    0.9041 H       1  LIG1        0.0235
     20 H           2.0587   -0.5524    2.2121 H       1  LIG1        0.0239
     21 H           1.4112    1.0934    2.3591 H       1  LIG1        0.0239
     22 H           2.6258    0.7084    1.1237 H       1  LIG1        0.0239
     23 C          -1.7081   -0.4298    0.1958 C.2     1  LIG1       -0.0717
     24 H          -1.5269    0.4706   -1.8147 H       1  LIG1        0.0355
     25 H          -3.6554   -0.5668   -0.6129 H       1  LIG1        0.0534
     26 H          -3.4841   -1.0526    1.1638 H       1  LIG1        0.0534
     27 H          -0.9564    0.0974    2.1792 H       1  LIG1        0.0320
     28 H          -0.5957   -1.5623    1.7197 H       1  LIG1        0.0320
@<TRIPOS>BOND
     1    10     1    1
     2    16    12    1
     3    24     8    1
     4    14    12    1
     5     9     1    1
     6     1     8    1
     7     1     2    1
     8    12    15    1
     9    12     6    1
    10     8     6    1
    11     8    23    1
    12    25    11    1
    13    18    13    1
    14     6    13    1
    15     6     3    1
    16     2     4    2
    17     2     3    1
    18    23    11    2
    19    23     5    1
    20    11    26    1
    21    13    19    1
    22    13    17    1
    23     3     5    1
    24     3     7    1
    25    22     7    1
    26     5    28    1
    27     5    27    1
    28     7    20    1
    29     7    21    1
@<TRIPOS>MOLECULE
5-methylenecamphor TS SPE = -3230.608411 ZPE = 0.53263
 68 76 0 0 0
SMALL
GASTEIGER

@<TRIPOS>ATOM
      1 FE          1.5555    0.0901    0.0585 Fe      1  LIG1        0.0000
      2 N           1.3934    1.9476    0.7743 N.ar    1  LIG1        0.0000
      3 N           1.9086    0.8082   -1.7738 N.ar    1  LIG1        0.0000
      4 N           1.3902   -0.6568    1.9438 N.ar    1  LIG1        0.0000
      5 N           1.8566   -1.8092   -0.6342 N.ar    1  LIG1        0.0000
      6 C           1.1254    2.3104    2.0710 C.ar    1  LIG1        0.0000
      7 C           2.0873    0.0812   -2.9269 C.ar    1  LIG1        0.0000
      8 C           1.4983    3.1153    0.0657 C.ar    1  LIG1        0.0000
      9 C           1.9445    2.1275   -2.1458 C.ar    1  LIG1        0.0000
     10 C           1.1312    0.0580    3.0802 C.ar    1  LIG1        0.0000
     11 C           2.0473   -2.1808   -1.9380 C.ar    1  LIG1        0.0000
     12 C           1.4648   -1.9735    2.3259 C.ar    1  LIG1        0.0000
     13 C           1.8670   -2.9684    0.1016 C.ar    1  LIG1        0.0000
     14 C           1.0450    3.7494    2.1773 C.ar    1  LIG1        0.0000
     15 C           2.2450    0.9705   -4.0534 C.ar    1  LIG1        0.0000
     16 C           1.2817    4.2487    0.9352 C.ar    1  LIG1        0.0000
     17 C           2.1629    2.2388   -3.5684 C.ar    1  LIG1        0.0000
     18 C           1.0390   -0.8277    4.2170 C.ar    1  LIG1        0.0000
     19 C           2.1771   -3.6163   -2.0333 C.ar    1  LIG1        0.0000
     20 C           1.2491   -2.0885    3.7489 C.ar    1  LIG1        0.0000
     21 C           2.0696   -4.1039   -0.7670 C.ar    1  LIG1        0.0000
     22 H           0.8448    4.2878    3.0943 H       1  LIG1        0.0000
     23 H           2.4024    0.6474   -5.0741 H       1  LIG1        0.0000
     24 H           1.3131    5.2826    0.6175 H       1  LIG1        0.0000
     25 H           2.2358    3.1737   -4.1081 H       1  LIG1        0.0000
     26 H           0.8454   -0.5089    5.2328 H       1  LIG1        0.0000
     27 H           2.3375   -4.1610   -2.9544 H       1  LIG1        0.0000
     28 H           1.2613   -3.0194    4.3002 H       1  LIG1        0.0000
     29 H           2.1209   -5.1322   -0.4341 H       1  LIG1        0.0000
     30 C           0.9928    1.4410    3.1430 C.2     1  LIG1        0.0000
     31 C           2.1385   -1.3030   -3.0129 C.2     1  LIG1        0.0000
     32 C           1.6863   -3.0504    1.4760 C.2     1  LIG1        0.0000
     33 C           1.7673    3.2081   -1.2925 C.2     1  LIG1        0.0000
     34 H           0.7905    1.8776    4.1159 H       1  LIG1        0.0000
     35 H           2.2911   -1.7343   -3.9972 H       1  LIG1        0.0000
     36 H           1.7167   -4.0386    1.9237 H       1  LIG1        0.0000
     37 H           1.8238    4.2017   -1.7253 H       1  LIG1        0.0000
     38 O          -0.1218    0.0063   -0.2103 O.3     1  LIG1        0.0000
     39 S           3.9194   -0.0166    0.5390 S.3     1  LIG1        0.0000
     40 H           4.3420   -0.2376   -0.7230 H       1  LIG1        0.0000
     41 C          -2.5799   -1.0010   -0.2124 C.3     2  LIG2        0.0000
     42 C          -1.3338   -1.5691   -0.1055 C.3     2  LIG2        0.0000
     43 H          -0.9706   -1.8955    0.8618 H       2  LIG2        0.0000
     44 H          -0.8691   -2.0302   -0.9695 H       2  LIG2        0.0000
     45 C          -3.4699   -0.5341    0.9131 C.3     2  LIG2        0.0000
     46 C          -3.2764   -0.6067   -1.4988 C.3     2  LIG2        0.0000
     47 C          -4.0589    0.8016    0.3271 C.3     2  LIG2        0.0000
     48 H          -2.9788   -0.4545    1.8859 H       2  LIG2        0.0000
     49 C          -4.7003   -1.4836    0.8821 C.3     2  LIG2        0.0000
     50 C          -4.5701    0.1148   -0.9960 C.3     2  LIG2        0.0000
     51 C          -5.2995    0.9421   -2.0384 C.3     2  LIG2        0.0000
     52 C          -5.4074   -1.0342   -0.4089 C.2     2  LIG2        0.0000
     53 C          -2.9846    1.8804    0.1168 C.3     2  LIG2        0.0000
     54 C          -5.1938    1.4137    1.1678 C.3     2  LIG2        0.0000
     55 H          -3.4985   -1.4608   -2.1516 H       2  LIG2        0.0000
     56 H          -2.6545    0.0830   -2.0835 H       2  LIG2        0.0000
     57 H          -5.3653   -1.3426    1.7405 H       2  LIG2        0.0000
     58 H          -4.4428   -2.5461    0.8395 H       2  LIG2        0.0000
     59 H          -6.0665    0.7638    1.2779 H       2  LIG2        0.0000
     60 H          -5.5431    2.3438    0.7075 H       2  LIG2        0.0000
     61 H          -4.8332    1.6643    2.1716 H       2  LIG2        0.0000
     62 H          -2.0758    1.5030   -0.3560 H       2  LIG2        0.0000
     63 H          -2.6854    2.2947    1.0863 H       2  LIG2        0.0000
     64 H          -3.3805    2.7083   -0.4823 H       2  LIG2        0.0000
     65 H          -4.6416    1.6980   -2.4789 H       2  LIG2        0.0000
     66 H          -6.1674    1.4500   -1.6068 H       2  LIG2        0.0000
     67 H          -5.6709    0.2976   -2.8409 H       2  LIG2        0.0000
     68 O          -6.4219   -1.5044   -0.8757 O.2     2  LIG2        0.0000
@<TRIPOS>BOND
     1    23    15    1
     2    25    17    1
     3    15    17   ar
     4    15     7   ar
     5    35    31    1
     6    17     9   ar
     7    31     7    2
     8    31    11    1
     9    27    19    1
    10     7     3   ar
    11    67    51    1
    12    65    51    1
    13    55    46    1
    14     9     3   ar
    15     9    33    1
    16    56    46    1
    17    51    66    1
    18    51    50    1
    19    19    11   ar
    20    19    21   ar
    21    11     5   ar
    22     3     1    1
    23    37    33    1
    24    46    50    1
    25    46    41    1
    26    33     8    2
    27    50    52    1
    28    50    47    1
    29    44    42    1
    30    68    52    2
    31    21    29    1
    32    21    13   ar
    33    40    39    1
    34     5     1    1
    35     5    13   ar
    36    64    53    1
    37    52    49    1
    38    62    53    1
    39    41    42    1
    40    41    45    1
    41    38     1    1
    42    42    43    1
    43     1    39    1
    44     1     2    1
    45     1     4    1
    46     8     2   ar
    47     8    16   ar
    48    13    32    1
    49    53    47    1
    50    53    63    1
    51    47    45    1
    52    47    54    1
    53    24    16    1
    54    60    54    1
    55     2     6   ar
    56    58    49    1
    57    49    45    1
    58    49    57    1
    59    45    48    1
    60    16    14   ar
    61    54    59    1
    62    54    61    1
    63    32    36    1
    64    32    12    2
    65     4    12   ar
    66     4    10   ar
    67     6    14   ar
    68     6    30    2
    69    14    22    1
    70    12    20   ar
    71    10    30    1
    72    10    18   ar
    73    30    34    1
    74    20    18   ar
    75    20    28    1
    76    18    26    1
@<TRIPOS>MOLECULE
2-methylpropene SPE = -157.286218 ZPE = 0.108112
 12 11 0 0 0
SMALL
GASTEIGER

@<TRIPOS>ATOM
      1 C           0.0000    1.4595    0.0000 C.2     1  LIG1       -0.1000
      2 C           0.0000    0.1231    0.0000 C.2     1  LIG1       -0.0828
      3 C           1.2774   -0.6788    0.0000 C.3     1  LIG1       -0.0443
      4 C          -1.2774   -0.6788    0.0000 C.3     1  LIG1       -0.0443
      5 H           0.9247    2.0299    0.0000 H       1  LIG1        0.0534
      6 H          -0.9247    2.0299   -0.0000 H       1  LIG1        0.0534
      7 H          -1.3304   -1.3345   -0.8789 H       1  LIG1        0.0274
      8 H          -2.1619   -0.0365   -0.0003 H       1  LIG1        0.0274
      9 H          -1.3306   -1.3341    0.8792 H       1  LIG1        0.0274
     10 H           2.1619   -0.0365    0.0003 H       1  LIG1        0.0274
     11 H           1.3306   -1.3341   -0.8792 H       1  LIG1        0.0274
     12 H           1.3303   -1.3346    0.8788 H       1  LIG1        0.0274
@<TRIPOS>BOND
     1    11     3    1
     2     7     4    1
     3     8     4    1
     4     6     1    1
     5     1     2    2
     6     1     5    1
     7     3     2    1
     8     3    10    1
     9     3    12    1
    10     4     2    1
    11     4     9    1
@<TRIPOS>MOLECULE
2-methylpropene TS SPE = -2883.714212 ZPE = 0.39549
 52 58 0 0 0
SMALL
GASTEIGER

@<TRIPOS>ATOM
      1 FE         -0.3057    0.0354   -0.2733 Fe      1  LIG1        0.0000
      2 N          -2.1655    0.5844    0.1889 N.ar    1  LIG1        0.0000
      3 N          -0.8536   -1.9178   -0.2221 N.ar    1  LIG1        0.0000
      4 N           0.2124    1.9498   -0.5401 N.ar    1  LIG1        0.0000
      5 N           1.5763   -0.5473   -0.8530 N.ar    1  LIG1        0.0000
      6 C          -2.6509    1.8626    0.2738 C.ar    1  LIG1        0.0000
      7 C          -0.0610   -3.0139   -0.4630 C.ar    1  LIG1        0.0000
      8 C          -3.2127   -0.2439    0.5089 C.ar    1  LIG1        0.0000
      9 C          -2.0756   -2.4051    0.1555 C.ar    1  LIG1        0.0000
     10 C          -0.5881    3.0477   -0.3617 C.ar    1  LIG1        0.0000
     11 C           2.0319   -1.8288   -1.0270 C.ar    1  LIG1        0.0000
     12 C           1.4584    2.4320   -0.8637 C.ar    1  LIG1        0.0000
     13 C           2.6274    0.2759   -1.1453 C.ar    1  LIG1        0.0000
     14 C          -4.0404    1.8439    0.6711 C.ar    1  LIG1        0.0000
     15 C          -0.8139   -4.2257   -0.2460 C.ar    1  LIG1        0.0000
     16 C          -4.3875    0.5384    0.8205 C.ar    1  LIG1        0.0000
     17 C          -2.0639   -3.8479    0.1405 C.ar    1  LIG1        0.0000
     18 C           0.1670    4.2566   -0.5879 C.ar    1  LIG1        0.0000
     19 C           3.4203   -1.8128   -1.4288 C.ar    1  LIG1        0.0000
     20 C           1.4364    3.8749   -0.8944 C.ar    1  LIG1        0.0000
     21 C           3.7910   -0.5052   -1.5001 C.ar    1  LIG1        0.0000
     22 H          -4.6526    2.7255    0.8080 H       1  LIG1        0.0000
     23 H          -0.4208   -5.2257   -0.3736 H       1  LIG1        0.0000
     24 H          -5.3453    0.1225    1.1042 H       1  LIG1        0.0000
     25 H          -2.9093   -4.4738    0.3944 H       1  LIG1        0.0000
     26 H          -0.2376    5.2574   -0.5136 H       1  LIG1        0.0000
     27 H           4.0135   -2.6946   -1.6324 H       1  LIG1        0.0000
     28 H           2.2902    4.4975   -1.1276 H       1  LIG1        0.0000
     29 H           4.7514   -0.0904   -1.7765 H       1  LIG1        0.0000
     30 C          -1.9255    3.0153    0.0108 C.2     1  LIG1        0.0000
     31 C           1.2761   -2.9797   -0.8426 C.2     1  LIG1        0.0000
     32 C           2.5831    1.6653   -1.1332 C.2     1  LIG1        0.0000
     33 C          -3.1773   -1.6292    0.5024 C.2     1  LIG1        0.0000
     34 H          -2.4390    3.9656    0.1145 H       1  LIG1        0.0000
     35 H           1.7697   -3.9324   -1.0072 H       1  LIG1        0.0000
     36 H           3.4963    2.1957   -1.3839 H       1  LIG1        0.0000
     37 H          -4.0878   -2.1524    0.7768 H       1  LIG1        0.0000
     38 O           0.1352    0.0314    1.3690 O.3     1  LIG1        0.0000
     39 S          -0.7430    0.0160   -2.6468 S.3     1  LIG1        0.0000
     40 H          -1.1585   -1.2616   -2.7605 H       1  LIG1        0.0000
     41 C           2.1307   -0.1798    3.1075 C.3     2  LIG2        0.0000
     42 C           1.3238   -1.1034    2.4725 C.3     2  LIG2        0.0000
     43 H           0.4618   -1.5112    2.9880 H       2  LIG2        0.0000
     44 C           3.4363    0.2566    2.5131 C.3     2  LIG2        0.0000
     45 C           1.6676    0.5355    4.3416 C.3     2  LIG2        0.0000
     46 H           4.2339    0.2555    3.2679 H       2  LIG2        0.0000
     47 H           3.3621    1.2880    2.1388 H       2  LIG2        0.0000
     48 H           3.7414   -0.3772    1.6775 H       2  LIG2        0.0000
     49 H           0.7284    0.1287    4.7242 H       2  LIG2        0.0000
     50 H           1.5099    1.6024    4.1296 H       2  LIG2        0.0000
     51 H           2.4228    0.4852    5.1376 H       2  LIG2        0.0000
     52 H           1.7156   -1.6918    1.6526 H       2  LIG2        0.0000
@<TRIPOS>BOND
     1    40    39    1
     2    39     1    1
     3    29    21    1
     4    27    19    1
     5    21    19   ar
     6    21    13   ar
     7    19    11   ar
     8    36    32    1
     9    13    32    1
    10    13     5   ar
    11    32    12    2
    12    28    20    1
    13    11     5   ar
    14    11    31    2
    15    35    31    1
    16    20    12   ar
    17    20    18   ar
    18    12     4   ar
    19     5     1    1
    20    31     7    1
    21    18    26    1
    22    18    10   ar
    23     4    10   ar
    24     4     1    1
    25     7    15   ar
    26     7     3   ar
    27    23    15    1
    28    10    30    2
    29     1     3    1
    30     1     2    1
    31     1    38    1
    32    15    17   ar
    33     3     9   ar
    34    30    34    1
    35    30     6    1
    36    17     9   ar
    37    17    25    1
    38     9    33    1
    39     2     6   ar
    40     2     8   ar
    41     6    14   ar
    42    33     8    2
    43    33    37    1
    44     8    16   ar
    45    14    22    1
    46    14    16   ar
    47    16    24    1
    48    52    42    1
    49    48    44    1
    50    47    44    1
    51    42    43    1
    52    42    41    1
    53    44    41    1
    54    44    46    1
    55    41    45    1
    56    50    45    1
    57    45    49    1
    58    45    51    1
@<TRIPOS>MOLECULE
trimethylethylene SPE =	-196.6146787 ZPE = 0.136272
 15 14 0 0 0
SMALL
GASTEIGER

@<TRIPOS>ATOM
      1 C          -0.7338   -0.6729   -0.0000 C.2     1  LIG1       -0.0884
      2 C           0.4495   -0.0407    0.0000 C.2     1  LIG1       -0.0799
      3 C           1.7420   -0.8220    0.0000 C.3     1  LIG1       -0.0441
      4 C           0.6271    1.4576   -0.0000 C.3     1  LIG1       -0.0441
      5 H          -0.7120   -1.7635   -0.0000 H       1  LIG1        0.0569
      6 C          -2.1136   -0.0785    0.0000 C.3     1  LIG1       -0.0466
      7 H           1.2018    1.7791    0.8787 H       1  LIG1        0.0274
      8 H          -0.3165    2.0058   -0.0000 H       1  LIG1        0.0274
      9 H           1.2018    1.7791   -0.8787 H       1  LIG1        0.0274
     10 H           1.5669   -1.9014    0.0000 H       1  LIG1        0.0274
     11 H           2.3532   -0.5768    0.8790 H       1  LIG1        0.0274
     12 H           2.3532   -0.5768   -0.8790 H       1  LIG1        0.0274
     13 H          -2.6817   -0.4098   -0.8789 H       1  LIG1        0.0272
     14 H          -2.1125    1.0138    0.0001 H       1  LIG1        0.0272
     15 H          -2.6818   -0.4099    0.8788 H       1  LIG1        0.0272
@<TRIPOS>BOND
     1    12     3    1
     2    13     6    1
     3     9     4    1
     4     5     1    1
     5     8     4    1
     6     1     2    2
     7     1     6    1
     8     4     2    1
     9     4     7    1
    10     2     3    1
    11     3    10    1
    12     3    11    1
    13     6    14    1
    14     6    15    1
@<TRIPOS>MOLECULE
trimethylethylene TS SPE = -2923.044293 ZPE = 0.423581
 55 61 0 0 0
SMALL
GASTEIGER

@<TRIPOS>ATOM
      1 FE          0.2862    0.1447   -0.3736 Fe      1  LIG1        0.0000
      2 N          -0.3493    2.0459   -0.4440 N.ar    1  LIG1        0.0000
      3 N          -1.5638   -0.4814   -0.9954 N.ar    1  LIG1        0.0000
      4 N           2.1224    0.7569    0.1173 N.ar    1  LIG1        0.0000
      5 N           0.9524   -1.7666   -0.5054 N.ar    1  LIG1        0.0000
      6 C           0.3871    3.1642   -0.1540 C.ar    1  LIG1        0.0000
      7 C          -1.9450   -1.7678   -1.2776 C.ar    1  LIG1        0.0000
      8 C          -1.6260    2.4838   -0.7032 C.ar    1  LIG1        0.0000
      9 C          -2.6664    0.3004   -1.1996 C.ar    1  LIG1        0.0000
     10 C           2.5291    2.0482    0.3278 C.ar    1  LIG1        0.0000
     11 C           0.2212   -2.8758   -0.8525 C.ar    1  LIG1        0.0000
     12 C           3.2237   -0.0317    0.3382 C.ar    1  LIG1        0.0000
     13 C           2.2117   -2.2125   -0.2116 C.ar    1  LIG1        0.0000
     14 C          -0.4411    4.3433   -0.2439 C.ar    1  LIG1        0.0000
     15 C          -3.3375   -1.7987   -1.6633 C.ar    1  LIG1        0.0000
     16 C          -1.6897    3.9212   -0.5812 C.ar    1  LIG1        0.0000
     17 C          -3.7857   -0.5141   -1.6152 C.ar    1  LIG1        0.0000
     18 C           3.9244    2.0768    0.7039 C.ar    1  LIG1        0.0000
     19 C           1.0497   -4.0555   -0.7786 C.ar    1  LIG1        0.0000
     20 C           4.3541    0.7875    0.7132 C.ar    1  LIG1        0.0000
     21 C           2.2850   -3.6445   -0.3799 C.ar    1  LIG1        0.0000
     22 H          -0.0950    5.3529   -0.0656 H       1  LIG1        0.0000
     23 H          -3.8806   -2.6928   -1.9400 H       1  LIG1        0.0000
     24 H          -2.5819    4.5126   -0.7399 H       1  LIG1        0.0000
     25 H          -4.7734   -0.1353   -1.8432 H       1  LIG1        0.0000
     26 H           4.4835    2.9768    0.9233 H       1  LIG1        0.0000
     27 H           0.7140   -5.0584   -1.0071 H       1  LIG1        0.0000
     28 H           5.3409    0.4060    0.9401 H       1  LIG1        0.0000
     29 H           3.1732   -4.2398   -0.2141 H       1  LIG1        0.0000
     30 C           1.7303    3.1747    0.1984 C.2     1  LIG1        0.0000
     31 C          -1.1221   -2.8848   -1.2069 C.2     1  LIG1        0.0000
     32 C           3.2733   -1.4094    0.1933 C.2     1  LIG1        0.0000
     33 C          -2.7057    1.6826   -1.0493 C.2     1  LIG1        0.0000
     34 H           2.1876    4.1385    0.3975 H       1  LIG1        0.0000
     35 H          -1.5626   -3.8446   -1.4577 H       1  LIG1        0.0000
     36 H           4.2206   -1.8990    0.3950 H       1  LIG1        0.0000
     37 H          -3.6520    2.1789   -1.2397 H       1  LIG1        0.0000
     38 O          -0.1473   -0.0172    1.2637 O.3     1  LIG1        0.0000
     39 S           0.7751    0.1828   -2.7260 S.3     1  LIG1        0.0000
     40 H          -0.1168    1.1322   -3.0764 H       1  LIG1        0.0000
     41 C          -2.0456   -0.5268    2.9870 C.3     2  LIG2        0.0000
     42 C          -1.1107   -1.3711    2.3998 C.3     2  LIG2        0.0000
     43 C           0.1089   -1.9130    3.0929 C.3     2  LIG2        0.0000
     44 H          -1.4558   -1.9449    1.5452 H       2  LIG2        0.0000
     45 C          -1.7798    0.2447    4.2453 C.3     2  LIG2        0.0000
     46 C          -3.3459   -0.2373    2.2993 C.3     2  LIG2        0.0000
     47 H          -2.6140    0.1368    4.9509 H       2  LIG2        0.0000
     48 H          -1.7018    1.3176    4.0189 H       2  LIG2        0.0000
     49 H          -0.8619   -0.0563    4.7516 H       2  LIG2        0.0000
     50 H          -3.5196   -0.8959    1.4457 H       2  LIG2        0.0000
     51 H          -3.3625    0.7975    1.9279 H       2  LIG2        0.0000
     52 H          -4.1888   -0.3330    2.9968 H       2  LIG2        0.0000
     53 H           0.8051   -2.3289    2.3634 H       2  LIG2        0.0000
     54 H          -0.1755   -2.7157    3.7873 H       2  LIG2        0.0000
     55 H           0.6363   -1.1429    3.6593 H       2  LIG2        0.0000
@<TRIPOS>BOND
     1    40    39    1
     2    39     1    1
     3    23    15    1
     4    25    17    1
     5    15    17   ar
     6    15     7   ar
     7    17     9   ar
     8    35    31    1
     9     7    31    2
    10     7     3   ar
    11    37    33    1
    12    31    11    1
    13     9    33    1
    14     9     3   ar
    15    33     8    2
    16    27    19    1
    17     3     1    1
    18    11    19   ar
    19    11     5   ar
    20    19    21   ar
    21    24    16    1
    22     8    16   ar
    23     8     2   ar
    24    16    14   ar
    25     5     1    1
    26     5    13   ar
    27     2     1    1
    28     2     6   ar
    29    21    29    1
    30    21    13   ar
    31     1     4    1
    32     1    38    1
    33    14     6   ar
    34    14    22    1
    35    13    32    1
    36     6    30    2
    37     4    10   ar
    38     4    12   ar
    39    32    12    2
    40    32    36    1
    41    30    10    1
    42    30    34    1
    43    10    18   ar
    44    12    20   ar
    45    18    20   ar
    46    18    26    1
    47    20    28    1
    48    50    46    1
    49    44    42    1
    50    51    46    1
    51    46    41    1
    52    46    52    1
    53    53    43    1
    54    42    41    1
    55    42    43    1
    56    41    45    1
    57    43    55    1
    58    43    54    1
    59    48    45    1
    60    45    49    1
    61    45    47    1
@<TRIPOS>MOLECULE
tetramethylethylene SPE = -235.9399668 ZPE = 0.16411
 18 17 0 0 0
SMALL
GASTEIGER

@<TRIPOS>ATOM
      1 C          -0.6748   -0.0000    0.0000 C.2     1  LIG1       -0.0770
      2 C           0.6748   -0.0000    0.0000 C.2     1  LIG1       -0.0770
      3 C           1.5278   -1.2499    0.0000 C.3     1  LIG1       -0.0438
      4 C           1.5278    1.2499   -0.0000 C.3     1  LIG1       -0.0438
      5 C          -1.5278   -1.2499   -0.0000 C.3     1  LIG1       -0.0438
      6 C          -1.5278    1.2499    0.0000 C.3     1  LIG1       -0.0438
      7 H           2.1875    1.2632    0.8779 H       1  LIG1        0.0274
      8 H           0.9614    2.1807   -0.0002 H       1  LIG1        0.0274
      9 H           2.1877    1.2631   -0.8778 H       1  LIG1        0.0274
     10 H           0.9615   -2.1807    0.0000 H       1  LIG1        0.0274
     11 H           2.1877   -1.2631    0.8779 H       1  LIG1        0.0274
     12 H           2.1877   -1.2631   -0.8779 H       1  LIG1        0.0274
     13 H          -2.1878    1.2630    0.8778 H       1  LIG1        0.0274
     14 H          -2.1874    1.2633   -0.8780 H       1  LIG1        0.0274
     15 H          -0.9614    2.1807    0.0003 H       1  LIG1        0.0274
     16 H          -0.9615   -2.1807    0.0001 H       1  LIG1        0.0274
     17 H          -2.1876   -1.2631   -0.8780 H       1  LIG1        0.0274
     18 H          -2.1878   -1.2630    0.8778 H       1  LIG1        0.0274
@<TRIPOS>BOND
     1    14     6    1
     2    17     5    1
     3    12     3    1
     4     9     4    1
     5     8     4    1
     6     4     2    1
     7     4     7    1
     8     5     1    1
     9     5    16    1
    10     5    18    1
    11     2     1    2
    12     2     3    1
    13     1     6    1
    14     3    10    1
    15     3    11    1
    16     6    15    1
    17     6    13    1
@<TRIPOS>MOLECULE
tetramethylethylene TS SPE = -2962.36906 ZPE = 0.451183
 58 64 0 0 0
SMALL
GASTEIGER

@<TRIPOS>ATOM
      1 FE          0.3551    0.0346   -0.4441 Fe      1  LIG1        0.0000
      2 N           2.1915   -0.6250    0.0245 N.ar    1  LIG1        0.0000
      3 N          -0.2408   -1.8738   -0.7794 N.ar    1  LIG1        0.0000
      4 N          -1.4751    0.7020   -1.0548 N.ar    1  LIG1        0.0000
      5 N           0.9865    1.9371   -0.3080 N.ar    1  LIG1        0.0000
      6 C           1.8099   -3.0445   -0.1244 C.2     1  LIG1        0.0000
      7 C          -2.5409   -1.4540   -1.5350 C.2     1  LIG1        0.0000
      8 C          -1.1114    3.1117   -0.8225 C.2     1  LIG1        0.0000
      9 C           3.3199    1.5295    0.3315 C.2     1  LIG1        0.0000
     10 C           2.5956   -1.9305    0.1335 C.ar    1  LIG1        0.0000
     11 C           0.4909   -3.0092   -0.5621 C.ar    1  LIG1        0.0000
     12 C          -1.4732   -2.2845   -1.2154 C.ar    1  LIG1        0.0000
     13 C          -2.5335   -0.0666   -1.4580 C.ar    1  LIG1        0.0000
     14 C          -1.8948    2.0017   -1.1175 C.ar    1  LIG1        0.0000
     15 C           0.2284    3.0721   -0.4580 C.ar    1  LIG1        0.0000
     16 C           2.2424    2.3572    0.0446 C.ar    1  LIG1        0.0000
     17 C           3.2854    0.1424    0.3242 C.ar    1  LIG1        0.0000
     18 C           4.4142   -0.7028    0.6410 C.ar    1  LIG1        0.0000
     19 C           3.9853   -1.9880    0.5270 C.ar    1  LIG1        0.0000
     20 C          -0.3022   -4.1770   -0.8677 C.ar    1  LIG1        0.0000
     21 C          -1.5199   -3.7268   -1.2766 C.ar    1  LIG1        0.0000
     22 C          -3.6629    0.7760   -1.7821 C.ar    1  LIG1        0.0000
     23 C          -3.2677    2.0603   -1.5669 C.ar    1  LIG1        0.0000
     24 C           1.0345    4.2420   -0.1998 C.ar    1  LIG1        0.0000
     25 C           2.2841    3.7990    0.1068 C.ar    1  LIG1        0.0000
     26 H           2.2692   -4.0198    0.0004 H       1  LIG1        0.0000
     27 H           0.0465   -5.1979   -0.7828 H       1  LIG1        0.0000
     28 H          -2.3795   -4.3018   -1.5953 H       1  LIG1        0.0000
     29 H          -3.4550   -1.9294   -1.8767 H       1  LIG1        0.0000
     30 H          -4.6209    0.4143   -2.1322 H       1  LIG1        0.0000
     31 H          -3.8329    2.9728   -1.7052 H       1  LIG1        0.0000
     32 H          -1.5743    4.0893   -0.9127 H       1  LIG1        0.0000
     33 H           0.6748    5.2611   -0.2561 H       1  LIG1        0.0000
     34 H           3.1629    4.3785    0.3579 H       1  LIG1        0.0000
     35 H           4.2599    2.0054    0.5914 H       1  LIG1        0.0000
     36 H           5.3978   -0.3402    0.9094 H       1  LIG1        0.0000
     37 H           4.5437   -2.9023    0.6793 H       1  LIG1        0.0000
     38 O          -0.1434   -0.0080    1.1834 O.3     1  LIG1        0.0000
     39 S           0.9067    0.0056   -2.7661 S.3     1  LIG1        0.0000
     40 H           0.8100    1.3338   -2.9795 H       1  LIG1        0.0000
     41 C          -1.0088   -0.2756    2.9300 C.3     2  LIG2        0.0000
     42 C          -2.3430   -0.0431    2.5508 C.3     2  LIG2        0.0000
     43 C          -0.2298    0.8008    3.6493 C.3     2  LIG2        0.0000
     44 C          -0.5060   -1.6786    3.1804 C.3     2  LIG2        0.0000
     45 C          -2.8860    1.3552    2.4396 C.3     2  LIG2        0.0000
     46 C          -3.2796   -1.1456    2.1603 C.3     2  LIG2        0.0000
     47 H          -2.9683   -2.1312    2.5083 H       2  LIG2        0.0000
     48 H          -3.3723   -1.1924    1.0647 H       2  LIG2        0.0000
     49 H          -4.2846   -0.9438    2.5504 H       2  LIG2        0.0000
     50 H          -2.1706    2.0288    1.9584 H       2  LIG2        0.0000
     51 H          -3.1211    1.7758    3.4283 H       2  LIG2        0.0000
     52 H          -3.8069    1.3693    1.8506 H       2  LIG2        0.0000
     53 H          -0.4706    1.8031    3.2959 H       2  LIG2        0.0000
     54 H           0.8418    0.6409    3.5185 H       2  LIG2        0.0000
     55 H          -0.4534    0.7543    4.7247 H       2  LIG2        0.0000
     56 H          -0.8463   -2.3831    2.4218 H       2  LIG2        0.0000
     57 H          -0.8470   -2.0315    4.1638 H       2  LIG2        0.0000
     58 H           0.5854   -1.6879    3.1791 H       2  LIG2        0.0000
@<TRIPOS>BOND
     1    40    39    1
     2    39     1    1
     3    30    22    1
     4    29     7    1
     5    22    23   ar
     6    22    13   ar
     7    31    23    1
     8    28    21    1
     9    23    14   ar
    10     7    13    1
    11     7    12    2
    12    13     4   ar
    13    21    12   ar
    14    21    20   ar
    15    12     3   ar
    16    14     4   ar
    17    14     8    2
    18     4     1    1
    19    32     8    1
    20    20    27    1
    21    20    11   ar
    22     8    15    1
    23     3    11   ar
    24     3     1    1
    25    11     6    2
    26    15     5   ar
    27    15    24   ar
    28     1     5    1
    29     1     2    1
    30     1    38    1
    31     5    16   ar
    32    33    24    1
    33    24    25   ar
    34     6    26    1
    35     6    10    1
    36     2    10   ar
    37     2    17   ar
    38    16    25   ar
    39    16     9    1
    40    25    34    1
    41    10    19   ar
    42    17     9    2
    43    17    18   ar
    44     9    35    1
    45    19    18   ar
    46    19    37    1
    47    18    36    1
    48    48    46    1
    49    52    45    1
    50    50    45    1
    51    46    47    1
    52    46    49    1
    53    46    42    1
    54    56    44    1
    55    45    42    1
    56    45    51    1
    57    42    41    1
    58    41    44    1
    59    41    43    1
    60    58    44    1
    61    44    57    1
    62    53    43    1
    63    54    43    1
    64    43    55    1
@<TRIPOS>MOLECULE
vinylmethylether SPE = -193.186714 ZPE = 0.084432
 10 9 0 0 0
SMALL
GASTEIGER

@<TRIPOS>ATOM
      1 C           1.8755   -0.0725    0.0386 C.2     1  LIG1       -0.0642
      2 C           0.6151    0.3530   -0.0355 C.2     1  LIG1        0.0770
      3 H           0.3635    1.4129   -0.0923 H       1  LIG1        0.1017
      4 O          -0.4457   -0.5023   -0.0673 O.2     1  LIG1       -0.5032
      5 H           2.6878    0.6432    0.0331 H       1  LIG1        0.0565
      6 H           2.1130   -1.1287    0.0964 H       1  LIG1        0.0565
      7 C          -1.7231    0.1085    0.0449 C.3     1  LIG1        0.0779
      8 H          -1.8594    0.5844    1.0250 H       1  LIG1        0.0660
      9 H          -2.4620   -0.6862   -0.0699 H       1  LIG1        0.0660
     10 H          -1.8821    0.8591   -0.7412 H       1  LIG1        0.0660
@<TRIPOS>BOND
     1    10     7    1
     2     3     2    1
     3     9     7    1
     4     4     2    1
     5     4     7    1
     6     2     1    2
     7     5     1    1
     8     1     6    1
     9     7     8    1
@<TRIPOS>MOLECULE
vinylmethylether TS SPE = -2919.62120675 ZPE = 0.373827
 50 56 0 0 0
SMALL
GASTEIGER

@<TRIPOS>ATOM
      1 FE         -0.3302    0.0404   -0.2420 Fe      1  LIG1        0.0000
      2 N          -2.0673    0.9053    0.2094 N.ar    1  LIG1        0.0000
      3 N           0.4857    1.8323   -0.6081 N.ar    1  LIG1        0.0000
      4 N           1.4331   -0.8663   -0.7834 N.ar    1  LIG1        0.0000
      5 N          -1.1824   -1.7938   -0.0833 N.ar    1  LIG1        0.0000
      6 C          -1.4397    3.2556   -0.0817 C.2     1  LIG1        0.0000
      7 C           2.7696    1.1395   -1.2096 C.2     1  LIG1        0.0000
      8 C           0.7535   -3.2148   -0.6172 C.2     1  LIG1        0.0000
      9 C          -3.4266   -1.0985    0.6142 C.2     1  LIG1        0.0000
     10 C          -2.3370    2.2484    0.2408 C.ar    1  LIG1        0.0000
     11 C          -0.1230    3.0528   -0.4744 C.ar    1  LIG1        0.0000
     12 C           1.7853    2.0889   -0.9761 C.ar    1  LIG1        0.0000
     13 C           2.5972   -0.2369   -1.1289 C.ar    1  LIG1        0.0000
     14 C           1.6815   -2.2107   -0.8669 C.ar    1  LIG1        0.0000
     15 C          -0.5726   -3.0137   -0.2517 C.ar    1  LIG1        0.0000
     16 C          -2.4656   -2.0578    0.3102 C.ar    1  LIG1        0.0000
     17 C          -3.2339    0.2726    0.5625 C.ar    1  LIG1        0.0000
     18 C          -4.2623    1.2487    0.8434 C.ar    1  LIG1        0.0000
     19 C          -3.7073    2.4728    0.6421 C.ar    1  LIG1        0.0000
     20 C           0.8113    4.1103   -0.7762 C.ar    1  LIG1        0.0000
     21 C           1.9943    3.5128   -1.0844 C.ar    1  LIG1        0.0000
     22 C           3.6225   -1.2121   -1.4230 C.ar    1  LIG1        0.0000
     23 C           3.0536   -2.4387   -1.2612 C.ar    1  LIG1        0.0000
     24 C          -1.5095   -4.0762    0.0264 C.ar    1  LIG1        0.0000
     25 C          -2.6842   -3.4829    0.3759 C.ar    1  LIG1        0.0000
     26 H          -1.7913    4.2802   -0.0185 H       1  LIG1        0.0000
     27 H           0.5754    5.1659   -0.7481 H       1  LIG1        0.0000
     28 H           2.9315    3.9762   -1.3634 H       1  LIG1        0.0000
     29 H           3.7512    1.5032   -1.4961 H       1  LIG1        0.0000
     30 H           4.6340   -0.9721   -1.7235 H       1  LIG1        0.0000
     31 H           3.5011   -3.4139   -1.4024 H       1  LIG1        0.0000
     32 H           1.0902   -4.2418   -0.7187 H       1  LIG1        0.0000
     33 H          -1.2803   -5.1318   -0.0391 H       1  LIG1        0.0000
     34 H          -3.6187   -3.9506    0.6565 H       1  LIG1        0.0000
     35 H          -4.4090   -1.4534    0.9087 H       1  LIG1        0.0000
     36 H          -5.2732    1.0068    1.1441 H       1  LIG1        0.0000
     37 H          -4.1663    3.4475    0.7433 H       1  LIG1        0.0000
     38 O           0.1387    0.0270    1.4001 O.3     1  LIG1        0.0000
     39 S          -0.7747   -0.0183   -2.5952 S.3     1  LIG1        0.0000
     40 H          -1.2991   -1.2582   -2.6706 H       1  LIG1        0.0000
     41 C           1.2600   -1.1594    2.4947 C.3     2  LIG2        0.0000
     42 C           2.5720   -0.7919    2.2830 C.3     2  LIG2        0.0000
     43 H           3.2092   -1.3086    1.5737 H       2  LIG2        0.0000
     44 H           0.9337   -2.0962    2.0639 H       2  LIG2        0.0000
     45 H           0.7117   -0.8112    3.3596 H       2  LIG2        0.0000
     46 O           3.1939    0.2759    2.8042 O.3     2  LIG2        0.0000
     47 C           2.4256    1.1554    3.6325 C.3     2  LIG2        0.0000
     48 H           2.1600    0.6669    4.5777 H       2  LIG2        0.0000
     49 H           3.0683    2.0120    3.8364 H       2  LIG2        0.0000
     50 H           1.5185    1.4700    3.1081 H       2  LIG2        0.0000
@<TRIPOS>BOND
     1    40    39    1
     2    39     1    1
     3    30    22    1
     4    29     7    1
     5    22    23   ar
     6    22    13   ar
     7    31    23    1
     8    28    21    1
     9    23    14   ar
    10     7    13    1
    11     7    12    2
    12    13     4   ar
    13    21    12   ar
    14    21    20   ar
    15    12     3   ar
    16    14     4   ar
    17    14     8    2
    18     4     1    1
    19    20    27    1
    20    20    11   ar
    21    32     8    1
    22     8    15    1
    23     3    11   ar
    24     3     1    1
    25    11     6    2
    26    15     5   ar
    27    15    24   ar
    28     1     5    1
    29     1     2    1
    30     1    38    1
    31     5    16   ar
    32     6    26    1
    33     6    10    1
    34    33    24    1
    35    24    25   ar
    36     2    10   ar
    37     2    17   ar
    38    10    19   ar
    39    16    25   ar
    40    16     9    1
    41    25    34    1
    42    17     9    2
    43    17    18   ar
    44     9    35    1
    45    19    37    1
    46    19    18   ar
    47    18    36    1
    48    43    42    1
    49    44    41    1
    50    42    41    1
    51    42    46    1
    52    41    45    1
    53    46    47    1
    54    50    47    1
    55    47    49    1
    56    47    48    1
@<TRIPOS>MOLECULE
vinylmethylthioether SPE = -516.160799 ZPE = 0.080938
 10 9 0 0 0
SMALL
GASTEIGER

@<TRIPOS>ATOM
      1 C           2.1624    0.1159    0.1788 C.2     1  LIG1       -0.0925
      2 C           0.9258    0.4457   -0.1997 C.2     1  LIG1       -0.0360
      3 H           0.7208    1.4062   -0.6702 H       1  LIG1        0.0684
      4 S          -0.4638   -0.6497   -0.0938 S.3     1  LIG1       -0.1370
      5 H           2.9919    0.7934    0.0028 H       1  LIG1        0.0540
      6 H           2.3875   -0.8337    0.6544 H       1  LIG1        0.0540
      7 C          -1.8164    0.5541    0.1665 C.3     1  LIG1       -0.0140
      8 H          -1.7263    1.0500    1.1350 H       1  LIG1        0.0344
      9 H          -2.7492   -0.0125    0.1393 H       1  LIG1        0.0344
     10 H          -1.8344    1.2980   -0.6341 H       1  LIG1        0.0344
@<TRIPOS>BOND
     1     3     2    1
     2    10     7    1
     3     2     4    1
     4     2     1    2
     5     4     7    1
     6     5     1    1
     7     9     7    1
     8     7     8    1
     9     1     6    1
@<TRIPOS>MOLECULE
vinylmethylthioether TS SPE = -3242.596789 ZPE = 0.369743
 50 56 0 0 0
SMALL
GASTEIGER

@<TRIPOS>ATOM
      1 FE         -0.4714    0.0479   -0.2852 Fe      1  LIG1        0.0000
      2 N          -2.0252    1.1473    0.3127 N.ar    1  LIG1        0.0000
      3 N           0.5053    1.7049   -0.8439 N.ar    1  LIG1        0.0000
      4 N           1.0798   -1.0966   -0.9872 N.ar    1  LIG1        0.0000
      5 N          -1.5191   -1.6525    0.0694 N.ar    1  LIG1        0.0000
      6 C          -1.1594    3.3823   -0.1925 C.2     1  LIG1        0.0000
      7 C           2.6008    0.7018   -1.6525 C.2     1  LIG1        0.0000
      8 C           0.1393   -3.3304   -0.6253 C.2     1  LIG1        0.0000
      9 C          -3.5530   -0.6471    0.9969 C.2     1  LIG1        0.0000
     10 C          -2.1259    2.5132    0.2929 C.ar    1  LIG1        0.0000
     11 C           0.0679    2.9977   -0.7157 C.ar    1  LIG1        0.0000
     12 C           1.7756    1.7791   -1.3621 C.ar    1  LIG1        0.0000
     13 C           2.2656   -0.6367   -1.4903 C.ar    1  LIG1        0.0000
     14 C           1.1459   -2.4647   -1.0345 C.ar    1  LIG1        0.0000
     15 C          -1.0939   -2.9466   -0.1103 C.ar    1  LIG1        0.0000
     16 C          -2.7641   -1.7334    0.6313 C.ar    1  LIG1        0.0000
     17 C          -3.2048    0.6852    0.8418 C.ar    1  LIG1        0.0000
     18 C          -4.0650    1.7955    1.1833 C.ar    1  LIG1        0.0000
     19 C          -3.3977    2.9286    0.8400 C.ar    1  LIG1        0.0000
     20 C           1.0833    3.9143   -1.1758 C.ar    1  LIG1        0.0000
     21 C           2.1432    3.1590   -1.5721 C.ar    1  LIG1        0.0000
     22 C           3.1170   -1.7464   -1.8542 C.ar    1  LIG1        0.0000
     23 C           2.4208   -2.8823   -1.5731 C.ar    1  LIG1        0.0000
     24 C          -2.1118   -3.8677    0.3354 C.ar    1  LIG1        0.0000
     25 C          -3.1480   -3.1145    0.7973 C.ar    1  LIG1        0.0000
     26 H          -1.3750    4.4451   -0.1517 H       1  LIG1        0.0000
     27 H           0.9815    4.9915   -1.1835 H       1  LIG1        0.0000
     28 H           3.0924    3.4870   -1.9748 H       1  LIG1        0.0000
     29 H           3.5810    0.9244   -2.0616 H       1  LIG1        0.0000
     30 H           4.1076   -1.6501   -2.2787 H       1  LIG1        0.0000
     31 H           2.7213   -3.9115   -1.7193 H       1  LIG1        0.0000
     32 H           0.3301   -4.3953   -0.7147 H       1  LIG1        0.0000
     33 H          -2.0264   -4.9458    0.2962 H       1  LIG1        0.0000
     34 H          -4.0894   -3.4465    1.2150 H       1  LIG1        0.0000
     35 H          -4.5254   -0.8613    1.4289 H       1  LIG1        0.0000
     36 H          -5.0512    1.6979    1.6179 H       1  LIG1        0.0000
     37 H          -3.7199    3.9572    0.9344 H       1  LIG1        0.0000
     38 O           0.1867    0.0488    1.2809 O.3     1  LIG1        0.0000
     39 S          -1.2142   -0.0452   -2.5727 S.3     1  LIG1        0.0000
     40 H          -1.9187   -1.1931   -2.5076 H       1  LIG1        0.0000
     41 C           1.3004   -1.2362    2.3108 C.3     2  LIG2        0.0000
     42 C           2.6141   -1.1024    1.9197 C.3     2  LIG2        0.0000
     43 H           3.0406   -1.7683    1.1756 H       2  LIG2        0.0000
     44 H           0.7611   -2.1207    1.9954 H       2  LIG2        0.0000
     45 H           0.9271   -0.7448    3.1994 H       2  LIG2        0.0000
     46 S           3.7119    0.1673    2.3639 S.3     2  LIG2        0.0000
     47 C           2.6611    1.2928    3.3416 C.3     2  LIG2        0.0000
     48 H           2.4062    0.8554    4.3097 H       2  LIG2        0.0000
     49 H           3.2471    2.1995    3.5013 H       2  LIG2        0.0000
     50 H           1.7564    1.5219    2.7744 H       2  LIG2        0.0000
@<TRIPOS>BOND
     1    39    40    1
     2    39     1    1
     3    30    22    1
     4    29     7    1
     5    28    21    1
     6    22    23   ar
     7    22    13   ar
     8    31    23    1
     9     7    13    1
    10     7    12    2
    11    23    14   ar
    12    21    12   ar
    13    21    20   ar
    14    13     4   ar
    15    12     3   ar
    16    27    20    1
    17    20    11   ar
    18    14     4   ar
    19    14     8    2
    20     4     1    1
    21     3    11   ar
    22     3     1    1
    23    11     6    2
    24    32     8    1
    25     8    15    1
    26     1     5    1
    27     1     2    1
    28     1    38    1
    29     6    26    1
    30     6    10    1
    31    15     5   ar
    32    15    24   ar
    33     5    16   ar
    34    10     2   ar
    35    10    19   ar
    36    33    24    1
    37     2    17   ar
    38    24    25   ar
    39    16    25   ar
    40    16     9    1
    41    25    34    1
    42    19    37    1
    43    19    18   ar
    44    17     9    2
    45    17    18   ar
    46     9    35    1
    47    43    42    1
    48    18    36    1
    49    42    41    1
    50    42    46    1
    51    44    41    1
    52    41    45    1
    53    46    47    1
    54    50    47    1
    55    47    49    1
    56    47    48    1
