@<TRIPOS>MOLECULE
ethylene energy: -6.271260602828 gnorm: 0.000046098731 xtb: 6.4.1 (afa7bdf)
 6 5 0 0 0
SMALL
GASTEIGER

@<TRIPOS>ATOM
      1 C          -0.6582    0.0000    0.0001 C.2     1  LIG1       -0.1058
      2 C           0.6582   -0.0000    0.0001 C.2     1  LIG1       -0.1058
      3 H           1.2294    0.9140   -0.0001 H       1  LIG1        0.0529
      4 H           1.2293   -0.9140   -0.0000 H       1  LIG1        0.0529
      5 H          -1.2294    0.9140    0.0000 H       1  LIG1        0.0529
      6 H          -1.2294   -0.9140   -0.0000 H       1  LIG1        0.0529
@<TRIPOS>BOND
     1     3     2    1
     2     4     2    1
     3     6     1    1
     4     5     1    1
     5     2     1    2
@<TRIPOS>MOLECULE
vinylfluoride energy: -10.501455623778 gnorm: 0.000022893946 xtb: 6.4.1 (afa7bdf)
 6 5 0 0 0
SMALL
GASTEIGER

@<TRIPOS>ATOM
      1 C          -1.2610   -0.2150    0.0000 C.2     1  LIG1       -0.0707
      2 C          -0.1259    0.4481   -0.0000 C.2     1  LIG1        0.0802
      3 H          -0.0098    1.5225   -0.0001 H       1  LIG1        0.0936
      4 F           1.0619   -0.1760   -0.0000 F       1  LIG1       -0.2144
      5 H          -2.1981    0.3076    0.0001 H       1  LIG1        0.0557
      6 H          -1.2821   -1.2903   -0.0000 H       1  LIG1        0.0557
@<TRIPOS>BOND
     1     3     2    1
     2     6     1    1
     3     4     2    1
     4     2     1    2
     5     1     5    1
@<TRIPOS>MOLECULE
vinylchloride energy: -10.321899470054 gnorm: 0.000049219717 xtb: 6.4.1 (afa7bdf)
 6 5 0 0 0
SMALL
GASTEIGER

@<TRIPOS>ATOM
      1 C          -1.7165   -0.2921   -0.0000 C.2     1  LIG1       -0.0876
      2 C          -0.6666    0.5040    0.0000 C.2     1  LIG1       -0.0025
      3 H          -0.7282    1.5812   -0.0001 H       1  LIG1        0.0740
      4 CL          0.9513   -0.0813   -0.0000 Cl      1  LIG1       -0.0925
      5 H          -2.7110    0.1173    0.0002 H       1  LIG1        0.0543
      6 H          -1.6239   -1.3640    0.0001 H       1  LIG1        0.0543
@<TRIPOS>BOND
     1     3     2    1
     2     4     2    1
     3     1     2    2
     4     1     6    1
     5     1     5    1
@<TRIPOS>MOLECULE
vinylbromide energy: -9.851863665977 gnorm: 0.000030458617 xtb: 6.4.1 (afa7bdf)
 6 5 0 0 0
SMALL
GASTEIGER

@<TRIPOS>ATOM
      1 C          -2.2197   -0.3216    0.0000 C.2     1  LIG1       -0.0919
      2 C          -1.2114    0.5247    0.0000 C.2     1  LIG1       -0.0257
      3 H          -1.3146    1.5979   -0.0000 H       1  LIG1        0.0690
      4 BR          0.5993   -0.0336   -0.0000 Br      1  LIG1       -0.0593
      5 H          -2.0759   -1.3884    0.0002 H       1  LIG1        0.0540
      6 H          -3.2351    0.0364    0.0000 H       1  LIG1        0.0540
@<TRIPOS>BOND
     1     4     2    1
     2     3     2    1
     3     6     1    1
     4     1     2    2
     5     1     5    1
@<TRIPOS>MOLECULE
propene energy: -9.442265389820 gnorm: 0.000033409017 xtb: 6.4.1 (afa7bdf)
 9 8 0 0 0
SMALL
GASTEIGER

@<TRIPOS>ATOM
      1 C          -1.2425   -0.2255    0.0000 C.2     1  LIG1       -0.1029
      2 C          -0.1070    0.4461    0.0000 C.2     1  LIG1       -0.0942
      3 H          -0.1156    1.5289   -0.0001 H       1  LIG1        0.0564
      4 C           1.2476   -0.1791   -0.0000 C.3     1  LIG1       -0.0471
      5 H          -2.1995    0.2678   -0.0001 H       1  LIG1        0.0532
      6 H          -1.2624   -1.3034    0.0001 H       1  LIG1        0.0532
      7 H           1.8084    0.1388    0.8787 H       1  LIG1        0.0272
      8 H           1.8078    0.1379   -0.8795 H       1  LIG1        0.0272
      9 H           1.1767   -1.2640    0.0005 H       1  LIG1        0.0272
@<TRIPOS>BOND
     1     8     4    1
     2     3     2    1
     3     5     1    1
     4     4     2    1
     5     4     9    1
     6     4     7    1
     7     1     2    2
     8     1     6    1
@<TRIPOS>MOLECULE
3fluoropropene energy: -13.663256030930 gnorm: 0.000016861399 xtb: 6.4.1 (afa7bdf)
 9 8 0 0 0
SMALL
GASTEIGER

@<TRIPOS>ATOM
      1 C          -1.5222   -0.5571    0.0001 C.2     1  LIG1       -0.1002
      2 C          -0.8505    0.5778    0.0000 C.2     1  LIG1       -0.0608
      3 H          -1.3489    1.5375   -0.0000 H       1  LIG1        0.0592
      4 C           0.6417    0.6833    0.0000 C.3     1  LIG1        0.1082
      5 H          -2.5977   -0.5797   -0.0000 H       1  LIG1        0.0533
      6 H          -1.0154   -1.5073    0.0001 H       1  LIG1        0.0533
      7 H           0.9953    1.2129   -0.8941 H       1  LIG1        0.0659
      8 F           1.2520   -0.5447   -0.0000 F       1  LIG1       -0.2447
      9 H           0.9953    1.2128    0.8942 H       1  LIG1        0.0659
@<TRIPOS>BOND
     1     7     4    1
     2     8     4    1
     3     3     2    1
     4     5     1    1
     5     4     2    1
     6     4     9    1
     7     2     1    2
     8     1     6    1
@<TRIPOS>MOLECULE
3chloropropene energy: -13.482854105238 gnorm: 0.000021478243 xtb: 6.4.1 (afa7bdf)
 9 8 0 0 0
SMALL
GASTEIGER

@<TRIPOS>ATOM
      1 C          -2.2711   -0.3286    0.2637 C.2     1  LIG1       -0.1015
      2 C          -1.2295    0.0372   -0.4609 C.2     1  LIG1       -0.0767
      3 H          -1.1560   -0.2349   -1.5047 H       1  LIG1        0.0578
      4 C          -0.0769    0.8056    0.0795 C.3     1  LIG1        0.0405
      5 H          -3.0869   -0.8890   -0.1584 H       1  LIG1        0.0532
      6 H          -2.3532   -0.0745    1.3078 H       1  LIG1        0.0532
      7 H           0.1472    1.6822   -0.5289 H       1  LIG1        0.0473
      8 CL          1.4019   -0.2190    0.0332 Cl      1  LIG1       -0.1210
      9 H          -0.2289    1.0920    1.1194 H       1  LIG1        0.0473
@<TRIPOS>BOND
     1     3     2    1
     2     7     4    1
     3     2     4    1
     4     2     1    2
     5     5     1    1
     6     8     4    1
     7     4     9    1
     8     1     6    1
@<TRIPOS>MOLECULE
3bromopropene energy: -13.016602515781 gnorm: 0.000017654076 xtb: 6.4.1 (afa7bdf)
 9 8 0 0 0
SMALL
GASTEIGER

@<TRIPOS>ATOM
      1 C           2.8647    0.4093    0.2605 C.2     1  LIG1       -0.1019
      2 C           1.8583   -0.0497   -0.4608 C.2     1  LIG1       -0.0808
      3 H           1.7749    0.1852   -1.5135 H       1  LIG1        0.0574
      4 C           0.7631   -0.8812    0.0968 C.3     1  LIG1        0.0212
      5 H           3.6445    1.0101   -0.1735 H       1  LIG1        0.0532
      6 H           2.9537    0.1952    1.3133 H       1  LIG1        0.0532
      7 H           0.9199   -1.1228    1.1467 H       1  LIG1        0.0425
      8 BR         -0.9494    0.0976    0.0119 Br      1  LIG1       -0.0874
      9 H           0.5991   -1.7882   -0.4847 H       1  LIG1        0.0425
@<TRIPOS>BOND
     1     3     2    1
     2     9     4    1
     3     2     4    1
     4     2     1    2
     5     5     1    1
     6     8     4    1
     7     4     7    1
     8     1     6    1
@<TRIPOS>MOLECULE
1butylene energy: -12.606051716841 gnorm: 0.000025615539 xtb: 6.4.1 (afa7bdf)
 12 11 0 0 0
SMALL
GASTEIGER

@<TRIPOS>ATOM
      1 C          -1.8048   -0.0517   -0.2821 C.2     1  LIG1       -0.1026
      2 C          -0.6785   -0.2077    0.3869 C.2     1  LIG1       -0.0914
      3 H          -0.6039   -0.9627    1.1596 H       1  LIG1        0.0566
      4 C           0.5667    0.5876    0.1553 C.3     1  LIG1       -0.0379
      5 H          -2.6770   -0.6515   -0.0841 H       1  LIG1        0.0532
      6 H          -1.9043    0.6906   -1.0576 H       1  LIG1        0.0532
      7 H           0.3971    1.3188   -0.6373 H       1  LIG1        0.0305
      8 C           1.7389   -0.3190   -0.2192 C.3     1  LIG1       -0.0618
      9 H           0.8175    1.1313    1.0712 H       1  LIG1        0.0305
     10 H           2.6409    0.2687   -0.3735 H       1  LIG1        0.0233
     11 H           1.5182   -0.8618   -1.1357 H       1  LIG1        0.0233
     12 H           1.9294   -1.0425    0.5706 H       1  LIG1        0.0233
@<TRIPOS>BOND
     1    11     8    1
     2     6     1    1
     3     7     4    1
     4    10     8    1
     5     1     5    1
     6     1     2    2
     7     8     4    1
     8     8    12    1
     9     4     2    1
    10     4     9    1
    11     2     3    1
@<TRIPOS>MOLECULE
1pentene energy: -15.770816917157 gnorm: 0.000030830225 xtb: 6.4.1 (afa7bdf)
 15 14 0 0 0
SMALL
GASTEIGER

@<TRIPOS>ATOM
      1 C           2.0403   -0.5672   -0.1322 C.2     1  LIG1       -0.1026
      2 C           1.1259    0.2202    0.4015 C.2     1  LIG1       -0.0911
      3 H           1.1287    0.4133    1.4673 H       1  LIG1        0.0566
      4 C           0.0317    0.8955   -0.3614 C.3     1  LIG1       -0.0353
      5 H           2.8120   -1.0320    0.4580 H       1  LIG1        0.0532
      6 H           2.0586   -0.7779   -1.1892 H       1  LIG1        0.0532
      7 H           0.1524    1.9790   -0.2645 H       1  LIG1        0.0307
      8 C          -1.3524    0.5063    0.1684 C.3     1  LIG1       -0.0525
      9 H           0.1043    0.6390   -1.4201 H       1  LIG1        0.0307
     10 H          -2.1111    1.1041   -0.3418 H       1  LIG1        0.0266
     11 H          -1.4077    0.7375    1.2348 H       1  LIG1        0.0266
     12 C          -1.6435   -0.9735   -0.0463 C.3     1  LIG1       -0.0650
     13 H          -2.6247   -1.2318    0.3457 H       1  LIG1        0.0230
     14 H          -0.8970   -1.5837    0.4571 H       1  LIG1        0.0230
     15 H          -1.6225   -1.2151   -1.1068 H       1  LIG1        0.0230
@<TRIPOS>BOND
     1     9     4    1
     2     6     1    1
     3    15    12    1
     4     4     7    1
     5     4     8    1
     6     4     2    1
     7    10     8    1
     8     1     2    2
     9     1     5    1
    10    12     8    1
    11    12    13    1
    12    12    14    1
    13     8    11    1
    14     2     3    1
@<TRIPOS>MOLECULE
3methyl1butene energy: -15.772579583019 gnorm: 0.000031973003 xtb: 6.4.1 (afa7bdf)
 15 14 0 0 0
SMALL
GASTEIGER

@<TRIPOS>ATOM
      1 C           2.0945   -0.0001    0.1680 C.2     1  LIG1       -0.1024
      2 C           0.9092    0.0002   -0.4108 C.2     1  LIG1       -0.0885
      3 H           0.8292    0.0007   -1.4906 H       1  LIG1        0.0569
      4 C          -0.3996    0.0000    0.3205 C.3     1  LIG1       -0.0288
      5 H           3.0101   -0.0001   -0.3993 H       1  LIG1        0.0532
      6 H           2.2009   -0.0007    1.2409 H       1  LIG1        0.0532
      7 C          -1.1959   -1.2563   -0.0382 C.3     1  LIG1       -0.0592
      8 C          -1.1960    1.2563   -0.0380 C.3     1  LIG1       -0.0592
      9 H          -0.2056   -0.0001    1.3984 H       1  LIG1        0.0338
     10 H          -0.6340    2.1503    0.2234 H       1  LIG1        0.0235
     11 H          -2.1421    1.2721    0.4988 H       1  LIG1        0.0235
     12 H          -1.4052    1.2809   -1.1056 H       1  LIG1        0.0235
     13 H          -2.1420   -1.2721    0.4984 H       1  LIG1        0.0235
     14 H          -0.6340   -2.1502    0.2231 H       1  LIG1        0.0235
     15 H          -1.4050   -1.2807   -1.1058 H       1  LIG1        0.0235
@<TRIPOS>BOND
     1     3     2    1
     2    15     7    1
     3    12     8    1
     4     2     1    2
     5     2     4    1
     6     5     1    1
     7     7    14    1
     8     7     4    1
     9     7    13    1
    10     8    10    1
    11     8     4    1
    12     8    11    1
    13     1     6    1
    14     4     9    1
@<TRIPOS>MOLECULE
allylalcohol energy: -13.498324817813 gnorm: 0.000028135821 xtb: 6.4.1 (afa7bdf)
 10 9 0 0 0
SMALL
GASTEIGER

@<TRIPOS>ATOM
      1 C           1.5074    0.5548   -0.0240 C.2     1  LIG1       -0.1005
      2 C           0.8188   -0.5697    0.0291 C.2     1  LIG1       -0.0661
      3 C          -0.6788   -0.6668   -0.0192 C.3     1  LIG1        0.0621
      4 H          -0.9793   -1.1767   -0.9409 H       1  LIG1        0.0601
      5 O          -1.3547    0.5640   -0.0284 O.3     1  LIG1       -0.3910
      6 H          -1.0187   -1.2877    0.8276 H       1  LIG1        0.0601
      7 H          -1.0534    1.0818    0.7267 H       1  LIG1        0.2098
      8 H           1.3167   -1.5257    0.1181 H       1  LIG1        0.0589
      9 H           1.0249    1.5127   -0.1327 H       1  LIG1        0.0532
     10 H           2.5824    0.5656    0.0191 H       1  LIG1        0.0532
@<TRIPOS>BOND
     1     4     3    1
     2     9     1    1
     3     5     3    1
     4     5     7    1
     5     1    10    1
     6     1     2    2
     7     3     2    1
     8     3     6    1
     9     2     8    1
@<TRIPOS>MOLECULE
3methoxy1propene energy: -16.659567549483 gnorm: 0.000018956405 xtb: 6.4.1 (afa7bdf)
 13 12 0 0 0
SMALL
GASTEIGER

@<TRIPOS>ATOM
      1 C           2.1286    0.4741    0.1525 C.2     1  LIG1       -0.1005
      2 C           1.1165   -0.1482   -0.4206 C.2     1  LIG1       -0.0658
      3 H           1.0372   -0.2141   -1.4976 H       1  LIG1        0.0589
      4 C          -0.0073   -0.8070    0.3271 C.3     1  LIG1        0.0652
      5 H           2.9227    0.9216   -0.4206 H       1  LIG1        0.0532
      6 H           2.2130    0.5496    1.2248 H       1  LIG1        0.0532
      7 H           0.0565   -1.8930    0.1977 H       1  LIG1        0.0604
      8 O          -1.2831   -0.4596   -0.1699 O.3     1  LIG1       -0.3790
      9 H           0.0620   -0.5726    1.4006 H       1  LIG1        0.0604
     10 C          -1.6222    0.8840    0.0615 C.3     1  LIG1        0.0368
     11 H          -1.6318    1.1093    1.1357 H       1  LIG1        0.0524
     12 H          -2.6208    1.0254   -0.3471 H       1  LIG1        0.0524
     13 H          -0.9236    1.5688   -0.4331 H       1  LIG1        0.0524
@<TRIPOS>BOND
     1     3     2    1
     2    13    10    1
     3     5     1    1
     4     2     1    2
     5     2     4    1
     6    12    10    1
     7     8    10    1
     8     8     4    1
     9    10    11    1
    10     1     6    1
    11     7     4    1
    12     4     9    1
@<TRIPOS>MOLECULE
13butadiene energy: -11.552702188123 gnorm: 0.000043310630 xtb: 6.4.1 (afa7bdf)
 10 9 0 0 0
SMALL
GASTEIGER

@<TRIPOS>ATOM
      1 C          -1.8275    0.1173   -0.0000 C.2     1  LIG1       -0.0987
      2 C          -0.6035   -0.3989    0.0000 C.2     1  LIG1       -0.0694
      3 H          -0.4640   -1.4725    0.0001 H       1  LIG1        0.0612
      4 C           0.6035    0.3990    0.0000 C.2     1  LIG1       -0.0694
      5 H          -2.7092   -0.5003    0.0001 H       1  LIG1        0.0535
      6 H          -1.9897    1.1831   -0.0000 H       1  LIG1        0.0535
      7 C           1.8275   -0.1173   -0.0001 C.2     1  LIG1       -0.0987
      8 H           0.4640    1.4725    0.0000 H       1  LIG1        0.0612
      9 H           1.9897   -1.1831   -0.0001 H       1  LIG1        0.0535
     10 H           2.7092    0.5002    0.0001 H       1  LIG1        0.0535
@<TRIPOS>BOND
     1     9     7    1
     2     7     4    2
     3     7    10    1
     4     6     1    1
     5     1     2    2
     6     1     5    1
     7     8     4    1
     8     4     2    1
     9     2     3    1
@<TRIPOS>MOLECULE
2methyl13butadiene energy: -14.722246182450 gnorm: 0.000035583834 xtb: 6.4.1 (afa7bdf)
 13 12 0 0 0
SMALL
GASTEIGER

@<TRIPOS>ATOM
      1 C           1.9619   -0.0207    0.0000 C.2     1  LIG1       -0.0985
      2 C           0.8190    0.6554   -0.0001 C.2     1  LIG1       -0.0665
      3 C          -0.5174    0.0749    0.0000 C.2     1  LIG1       -0.0581
      4 C          -1.5899    0.8655    0.0001 C.2     1  LIG1       -0.0958
      5 C          -0.6442   -1.4191   -0.0000 C.3     1  LIG1       -0.0403
      6 H          -2.5909    0.4688    0.0001 H       1  LIG1        0.0537
      7 H          -1.5035    1.9393    0.0001 H       1  LIG1        0.0537
      8 H           0.8445    1.7382   -0.0003 H       1  LIG1        0.0614
      9 H           2.0008   -1.0965    0.0002 H       1  LIG1        0.0535
     10 H           2.9126    0.4852   -0.0001 H       1  LIG1        0.0535
     11 H          -0.1628   -1.8394    0.8818 H       1  LIG1        0.0277
     12 H          -0.1625   -1.8394   -0.8816 H       1  LIG1        0.0277
     13 H          -1.6900   -1.7147   -0.0002 H       1  LIG1        0.0277
@<TRIPOS>BOND
     1    12     5    1
     2     8     2    1
     3    13     5    1
     4     2     3    1
     5     2     1    2
     6    10     1    1
     7     5     3    1
     8     5    11    1
     9     3     4    2
    10     1     9    1
    11     4     6    1
    12     4     7    1
@<TRIPOS>MOLECULE
cis2butene energy: -12.609957999641 gnorm: 0.000023251540 xtb: 6.4.1 (afa7bdf)
 12 11 0 0 0
SMALL
GASTEIGER

@<TRIPOS>ATOM
      1 C          -0.6620    0.6304    0.0000 C.2     1  LIG1       -0.0913
      2 C           0.6620    0.6304    0.0000 C.2     1  LIG1       -0.0913
      3 H          -1.1770    1.5835   -0.0001 H       1  LIG1        0.0566
      4 C          -1.5767   -0.5508    0.0000 C.3     1  LIG1       -0.0468
      5 H           1.1771    1.5835   -0.0001 H       1  LIG1        0.0566
      6 C           1.5766   -0.5509   -0.0000 C.3     1  LIG1       -0.0468
      7 H           2.2199   -0.5196   -0.8795 H       1  LIG1        0.0272
      8 H           1.0367   -1.4925    0.0004 H       1  LIG1        0.0272
      9 H           2.2205   -0.5193    0.8790 H       1  LIG1        0.0272
     10 H          -2.2200   -0.5196   -0.8795 H       1  LIG1        0.0272
     11 H          -2.2206   -0.5191    0.8791 H       1  LIG1        0.0272
     12 H          -1.0367   -1.4924    0.0004 H       1  LIG1        0.0272
@<TRIPOS>BOND
     1     7     6    1
     2    10     4    1
     3     3     1    1
     4     5     2    1
     5     6     2    1
     6     6     8    1
     7     6     9    1
     8     1     2    2
     9     1     4    1
    10     4    12    1
    11     4    11    1
@<TRIPOS>MOLECULE
trans2butene energy: -12.612394481310 gnorm: 0.000013899533 xtb: 6.4.1 (afa7bdf)
 12 11 0 0 0
SMALL
GASTEIGER

@<TRIPOS>ATOM
      1 C           0.5326   -0.3914    0.0000 C.2     1  LIG1       -0.0913
      2 C          -0.5326    0.3914    0.0000 C.2     1  LIG1       -0.0913
      3 C           1.9451    0.0918   -0.0000 C.3     1  LIG1       -0.0468
      4 H           0.4102   -1.4676    0.0000 H       1  LIG1        0.0566
      5 H          -0.4102    1.4676   -0.0000 H       1  LIG1        0.0566
      6 C          -1.9451   -0.0917    0.0000 C.3     1  LIG1       -0.0468
      7 H          -1.9857   -1.1783   -0.0002 H       1  LIG1        0.0272
      8 H          -2.4715    0.2798   -0.8792 H       1  LIG1        0.0272
      9 H          -2.4713    0.2794    0.8795 H       1  LIG1        0.0272
     10 H           1.9857    1.1783   -0.0002 H       1  LIG1        0.0272
     11 H           2.4714   -0.2794    0.8794 H       1  LIG1        0.0272
     12 H           2.4714   -0.2796   -0.8793 H       1  LIG1        0.0272
@<TRIPOS>BOND
     1    12     3    1
     2     8     6    1
     3     7     6    1
     4    10     3    1
     5     3     1    1
     6     3    11    1
     7     5     2    1
     8     4     1    1
     9     1     2    2
    10     2     6    1
    11     6     9    1
@<TRIPOS>MOLECULE
11difluoroethylene energy: -14.731682668175 gnorm: 0.000027240786 xtb: 6.4.1 (afa7bdf)
 6 5 0 0 0
SMALL
GASTEIGER

@<TRIPOS>ATOM
      1 C          -1.4630    0.0009    0.0000 C.2     1  LIG1       -0.0340
      2 C          -0.1510    0.0001   -0.0000 C.2     1  LIG1        0.2634
      3 F           0.6158   -1.0817   -0.0000 F       1  LIG1       -0.1733
      4 F           0.6173    1.0809   -0.0000 F       1  LIG1       -0.1733
      5 H          -2.0058   -0.9238    0.0001 H       1  LIG1        0.0587
      6 H          -2.0047    0.9263   -0.0000 H       1  LIG1        0.0587
@<TRIPOS>BOND
     1     6     1    1
     2     4     2    1
     3     2     3    1
     4     2     1    2
     5     1     5    1
@<TRIPOS>MOLECULE
11dichloroethylene energy: -14.369705418624 gnorm: 0.000033311488 xtb: 6.4.1 (afa7bdf)
 6 5 0 0 0
SMALL
GASTEIGER

@<TRIPOS>ATOM
      1 C           0.0001    1.8044    0.0000 C.2     1  LIG1       -0.0689
      2 C          -0.0000    0.4839    0.0000 C.2     1  LIG1        0.0995
      3 CL         -1.4413   -0.4546   -0.0000 Cl      1  LIG1       -0.0711
      4 CL          1.4413   -0.4547    0.0000 Cl      1  LIG1       -0.0711
      5 H          -0.9215    2.3569    0.0000 H       1  LIG1        0.0558
      6 H           0.9217    2.3567   -0.0001 H       1  LIG1        0.0558
@<TRIPOS>BOND
     1     6     1    1
     2     3     2    1
     3     1     2    2
     4     1     5    1
     5     2     4    1
@<TRIPOS>MOLECULE
cis12dichloroethylene energy: -14.366865153124 gnorm: 0.000027148165 xtb: 6.4.1 (afa7bdf)
 6 5 0 0 0
SMALL
GASTEIGER

@<TRIPOS>ATOM
      1 C          -0.6625   -1.0233    0.0000 C.2     1  LIG1        0.0156
      2 C           0.6625   -1.0234   -0.0001 C.2     1  LIG1        0.0156
      3 H          -1.2288   -1.9409    0.0000 H       1  LIG1        0.0754
      4 CL         -1.6118    0.4019    0.0001 Cl      1  LIG1       -0.0911
      5 H           1.2288   -1.9410    0.0000 H       1  LIG1        0.0754
      6 CL          1.6118    0.4019   -0.0001 Cl      1  LIG1       -0.0911
@<TRIPOS>BOND
     1     6     2    1
     2     2     5    1
     3     2     1    2
     4     3     1    1
     5     1     4    1
@<TRIPOS>MOLECULE
trichloroethylene energy: -18.412065154951 gnorm: 0.000016363469 xtb: 6.4.1 (afa7bdf)
 6 5 0 0 0
SMALL
GASTEIGER

@<TRIPOS>ATOM
      1 C           0.6274    0.9563    0.0000 C.2     1  LIG1        0.0342
      2 C          -0.4218    0.1381    0.0001 C.2     1  LIG1        0.1176
      3 CL         -2.0224    0.7593    0.0000 Cl      1  LIG1       -0.0696
      4 CL         -0.2977   -1.5700    0.0000 Cl      1  LIG1       -0.0696
      5 H           0.5155    2.0284    0.0002 H       1  LIG1        0.0770
      6 CL          2.2359    0.3823   -0.0001 Cl      1  LIG1       -0.0896
@<TRIPOS>BOND
     1     6     1    1
     2     3     2    1
     3     4     2    1
     4     1     2    2
     5     1     5    1
@<TRIPOS>MOLECULE
styrene energy: -21.158608435316 gnorm: 0.000007618764 xtb: 6.4.1 (afa7bdf)
 16 16 0 0 0
SMALL
GASTEIGER

@<TRIPOS>ATOM
      1 C          -2.9597   -0.3517   -0.0223 C.2     1  LIG1       -0.0981
      2 C          -1.9593    0.5201    0.0172 C.2     1  LIG1       -0.0617
      3 C           0.3796    1.2731   -0.0001 C.ar    1  LIG1       -0.0546
      4 C          -0.5330    0.2165    0.0095 C.ar    1  LIG1       -0.0256
      5 C          -0.0314   -1.0858    0.0124 C.ar    1  LIG1       -0.0546
      6 C           1.3301   -1.3186    0.0037 C.ar    1  LIG1       -0.0612
      7 C           2.2226   -0.2589   -0.0080 C.ar    1  LIG1       -0.0617
      8 C           1.7412    1.0395   -0.0097 C.ar    1  LIG1       -0.0612
      9 H           0.0110    2.2896   -0.0014 H       1  LIG1        0.0623
     10 H           2.4302    1.8718   -0.0180 H       1  LIG1        0.0618
     11 H           3.2865   -0.4447   -0.0149 H       1  LIG1        0.0618
     12 H           1.7001   -2.3339    0.0067 H       1  LIG1        0.0618
     13 H          -0.7105   -1.9243    0.0241 H       1  LIG1        0.0623
     14 H          -2.1907    1.5781    0.0557 H       1  LIG1        0.0618
     15 H          -2.8062   -1.4163   -0.0665 H       1  LIG1        0.0535
     16 H          -3.9859   -0.0259   -0.0138 H       1  LIG1        0.0535
@<TRIPOS>BOND
     1    15     1    1
     2     1    16    1
     3     1     2    2
     4    10     8    1
     5    11     7    1
     6     8     7   ar
     7     8     3   ar
     8     7     6   ar
     9     9     3    1
    10     3     4   ar
    11     6    12    1
    12     6     5   ar
    13     4     5   ar
    14     4     2    1
    15     5    13    1
    16     2    14    1
@<TRIPOS>MOLECULE
4fluorostyrene energy: -25.389090321273 gnorm: 0.000020056812 xtb: 6.4.1 (afa7bdf)
 16 16 0 0 0
SMALL
GASTEIGER

@<TRIPOS>ATOM
      1 C          -3.4535    0.5006   -0.0115 C.2     1  LIG1       -0.0981
      2 C          -2.5106   -0.4339    0.0068 C.2     1  LIG1       -0.0617
      3 C          -0.2250   -1.3352    0.0005 C.ar    1  LIG1       -0.0519
      4 C          -1.0679   -0.2213    0.0044 C.ar    1  LIG1       -0.0254
      5 C          -0.4866    1.0482    0.0065 C.ar    1  LIG1       -0.0519
      6 C           0.8851    1.2039    0.0038 C.ar    1  LIG1       -0.0259
      7 C           1.6871    0.0764   -0.0011 C.ar    1  LIG1        0.1234
      8 C           1.1491   -1.1974   -0.0027 C.ar    1  LIG1       -0.0259
      9 H          -0.6563   -2.3258   -0.0006 H       1  LIG1        0.0624
     10 H           1.8017   -2.0563   -0.0061 H       1  LIG1        0.0646
     11 F           3.0292    0.2244   -0.0039 F       1  LIG1       -0.2055
     12 H           1.3390    2.1825    0.0057 H       1  LIG1        0.0646
     13 H          -1.1112    1.9271    0.0115 H       1  LIG1        0.0624
     14 H          -2.8082   -1.4753    0.0234 H       1  LIG1        0.0618
     15 H          -3.2339    1.5541   -0.0310 H       1  LIG1        0.0535
     16 H          -4.4976    0.2391   -0.0086 H       1  LIG1        0.0535
@<TRIPOS>BOND
     1    15     1    1
     2     1    16    1
     3     1     2    2
     4    10     8    1
     5    11     7    1
     6     8     7   ar
     7     8     3   ar
     8     7     6   ar
     9     9     3    1
    10     3     4   ar
    11     6    12    1
    12     6     5   ar
    13     4     5   ar
    14     4     2    1
    15     5    13    1
    16     2    14    1
@<TRIPOS>MOLECULE
2chlorostyrene energy: -25.210624772974 gnorm: 0.000021295856 xtb: 6.4.1 (afa7bdf)
 16 16 0 0 0
SMALL
GASTEIGER

@<TRIPOS>ATOM
      1 C          -1.4516   -2.7250    0.1979 C.2     1  LIG1       -0.0981
      2 C          -1.2903   -1.4611   -0.1711 C.2     1  LIG1       -0.0603
      3 C           1.1999   -1.3448   -0.0894 C.ar    1  LIG1       -0.0532
      4 C          -0.0428   -0.7087   -0.0841 C.ar    1  LIG1       -0.0073
      5 C          -0.0443    0.6878   -0.0122 C.ar    1  LIG1        0.0481
      6 C           1.1325    1.4131    0.0616 C.ar    1  LIG1       -0.0428
      7 C           2.3481    0.7530    0.0590 C.ar    1  LIG1       -0.0603
      8 C           2.3788   -0.6298   -0.0176 C.ar    1  LIG1       -0.0611
      9 H           1.2320   -2.4204   -0.1690 H       1  LIG1        0.0624
     10 H           3.3247   -1.1503   -0.0262 H       1  LIG1        0.0618
     11 H           1.0919    2.4898    0.1202 H       1  LIG1        0.0632
     12 CL         -1.5389    1.5650    0.0127 Cl      1  LIG1       -0.0829
     13 H          -2.1368   -0.9065   -0.5529 H       1  LIG1        0.0618
     14 H          -0.6540   -3.3120    0.6214 H       1  LIG1        0.0535
     15 H          -2.4039   -3.2177    0.1041 H       1  LIG1        0.0535
     16 H           3.2656    1.3187    0.1137 H       1  LIG1        0.0618
@<TRIPOS>BOND
     1    13     2    1
     2     2     4    1
     3     2     1    2
     4     9     3    1
     5     3     4   ar
     6     3     8   ar
     7     4     5   ar
     8    10     8    1
     9     8     7   ar
    10     5    12    1
    11     5     6   ar
    12     7     6   ar
    13     7    16    1
    14     6    11    1
    15    15     1    1
    16     1    14    1
@<TRIPOS>MOLECULE
3chlorostyrene energy: -25.211530461874 gnorm: 0.000036102955 xtb: 6.4.1 (afa7bdf)
 16 16 0 0 0
SMALL
GASTEIGER

@<TRIPOS>ATOM
      1 C           3.0050   -1.7073    0.0081 C.2     1  LIG1       -0.0981
      2 C           2.7097   -0.4132   -0.0066 C.2     1  LIG1       -0.0617
      3 C           1.2553    1.5706   -0.0005 C.ar    1  LIG1       -0.0545
      4 C           1.3770    0.1796   -0.0034 C.ar    1  LIG1       -0.0242
      5 C           0.2118   -0.5879   -0.0035 C.ar    1  LIG1       -0.0362
      6 C          -1.0233    0.0309   -0.0001 C.ar    1  LIG1        0.0415
      7 C          -1.1406    1.4120    0.0035 C.ar    1  LIG1       -0.0434
      8 C           0.0136    2.1764    0.0032 C.ar    1  LIG1       -0.0598
      9 H           2.1476    2.1797   -0.0007 H       1  LIG1        0.0623
     10 H          -0.0617    3.2535    0.0058 H       1  LIG1        0.0618
     11 CL         -2.4564   -0.9421   -0.0006 Cl      1  LIG1       -0.0835
     12 H           3.5179    0.3078   -0.0212 H       1  LIG1        0.0618
     13 H           2.2551   -2.4791    0.0246 H       1  LIG1        0.0535
     14 H           4.0267   -2.0460    0.0048 H       1  LIG1        0.0535
     15 H          -2.1144    1.8750    0.0062 H       1  LIG1        0.0632
     16 H           0.2631   -1.6643   -0.0073 H       1  LIG1        0.0638
@<TRIPOS>BOND
     1    12     2    1
     2    16     5    1
     3     2     4    1
     4     2     1    2
     5     5     4   ar
     6     5     6   ar
     7     4     3   ar
     8     9     3    1
     9    11     6    1
    10     3     8   ar
    11     6     7   ar
    12     8     7   ar
    13     8    10    1
    14     7    15    1
    15    14     1    1
    16     1    13    1
@<TRIPOS>MOLECULE
4chlorostyrene energy: -25.211623616169 gnorm: 0.000026953926 xtb: 6.4.1 (afa7bdf)
 16 16 0 0 0
SMALL
GASTEIGER

@<TRIPOS>ATOM
      1 C           3.9008    0.5700   -0.0062 C.2     1  LIG1       -0.0981
      2 C           2.9842   -0.3906    0.0028 C.2     1  LIG1       -0.0617
      3 C           0.7219   -1.3517    0.0004 C.ar    1  LIG1       -0.0532
      4 C           1.5369   -0.2176    0.0022 C.ar    1  LIG1       -0.0255
      5 C           0.9180    1.0339    0.0036 C.ar    1  LIG1       -0.0532
      6 C          -0.4574    1.1501    0.0026 C.ar    1  LIG1       -0.0428
      7 C          -1.2411    0.0063    0.0002 C.ar    1  LIG1        0.0410
      8 C          -0.6551   -1.2494   -0.0008 C.ar    1  LIG1       -0.0428
      9 H           1.1773   -2.3316   -0.0004 H       1  LIG1        0.0624
     10 H          -1.2727   -2.1340   -0.0025 H       1  LIG1        0.0632
     11 H           3.3105   -1.4236    0.0106 H       1  LIG1        0.0618
     12 H           3.6514    1.6170   -0.0155 H       1  LIG1        0.0535
     13 H           4.9519    0.3379   -0.0053 H       1  LIG1        0.0535
     14 CL         -2.9642    0.1487   -0.0013 Cl      1  LIG1       -0.0835
     15 H           1.5160    1.9313    0.0060 H       1  LIG1        0.0624
     16 H          -0.9252    2.1224    0.0037 H       1  LIG1        0.0632
@<TRIPOS>BOND
     1    12     1    1
     2     1    13    1
     3     1     2    2
     4    10     8    1
     5    14     7    1
     6     8     7   ar
     7     8     3   ar
     8     9     3    1
     9     7     6   ar
    10     3     4   ar
    11     4     2    1
    12     4     5   ar
    13     6     5   ar
    14     6    16    1
    15     2    11    1
    16     5    15    1
@<TRIPOS>MOLECULE
4bromostyrene energy: -24.740497279820 gnorm: 0.000049621315 xtb: 6.4.1 (afa7bdf)
 16 16 0 0 0
SMALL
GASTEIGER

@<TRIPOS>ATOM
      1 C          -4.6821    0.6191   -0.0058 C.2     1  LIG1       -0.0981
      2 C          -3.7855   -0.3602    0.0028 C.2     1  LIG1       -0.0617
      3 C          -1.5431   -1.3655    0.0003 C.ar    1  LIG1       -0.0536
      4 C          -2.3352   -0.2149    0.0020 C.ar    1  LIG1       -0.0255
      5 C          -1.6933    1.0253    0.0032 C.ar    1  LIG1       -0.0536
      6 C          -0.3160    1.1153    0.0024 C.ar    1  LIG1       -0.0472
      7 C           0.4405   -0.0450    0.0003 C.ar    1  LIG1        0.0179
      8 C          -0.1644   -1.2901   -0.0009 C.ar    1  LIG1       -0.0472
      9 H          -2.0168   -2.3367   -0.0005 H       1  LIG1        0.0624
     10 H           0.4361   -2.1870   -0.0023 H       1  LIG1        0.0629
     11 H          -4.1316   -1.3866    0.0107 H       1  LIG1        0.0618
     12 H          -4.4120    1.6610   -0.0148 H       1  LIG1        0.0535
     13 H          -5.7375    0.4082   -0.0045 H       1  LIG1        0.0535
     14 BR          2.3430    0.0754   -0.0006 Br      1  LIG1       -0.0503
     15 H          -2.2732    1.9345    0.0053 H       1  LIG1        0.0624
     16 H           0.1705    2.0789    0.0034 H       1  LIG1        0.0629
@<TRIPOS>BOND
     1    12     1    1
     2     1    13    1
     3     1     2    2
     4    10     8    1
     5     8     3   ar
     6     8     7   ar
     7    14     7    1
     8     9     3    1
     9     3     4   ar
    10     7     6   ar
    11     4     2    1
    12     4     5   ar
    13     6     5   ar
    14     6    16    1
    15     2    11    1
    16     5    15    1
@<TRIPOS>MOLECULE
4methylstyrene energy: -24.329588435069 gnorm: 0.000034702101 xtb: 6.4.1 (afa7bdf)
 19 19 0 0 0
SMALL
GASTEIGER

@<TRIPOS>ATOM
      1 C           3.3917    0.5040    0.0006 C.2     1  LIG1       -0.0981
      2 C           2.4485   -0.4305    0.0035 C.2     1  LIG1       -0.0617
      3 C           0.1602   -1.3282   -0.0007 C.ar    1  LIG1       -0.0544
      4 C           1.0067   -0.2190    0.0010 C.ar    1  LIG1       -0.0256
      5 C           0.4189    1.0471   -0.0006 C.ar    1  LIG1       -0.0544
      6 C          -0.9529    1.1904   -0.0040 C.ar    1  LIG1       -0.0583
      7 C          -1.7926    0.0811   -0.0062 C.ar    1  LIG1       -0.0504
      8 C          -1.2129   -1.1807   -0.0042 C.ar    1  LIG1       -0.0583
      9 H           0.5889   -2.3209   -0.0004 H       1  LIG1        0.0624
     10 H          -1.8447   -2.0581   -0.0064 H       1  LIG1        0.0620
     11 H           2.7470   -1.4724    0.0082 H       1  LIG1        0.0618
     12 H           3.1705    1.5575   -0.0044 H       1  LIG1        0.0535
     13 H           4.4365    0.2442    0.0032 H       1  LIG1        0.0535
     14 C          -3.2805    0.2542    0.0067 C.3     1  LIG1       -0.0397
     15 H           1.0402    1.9294    0.0001 H       1  LIG1        0.0624
     16 H          -1.3865    2.1809   -0.0059 H       1  LIG1        0.0620
     17 H          -3.5843    1.0262   -0.6980 H       1  LIG1        0.0278
     18 H          -3.6128    0.5603    0.9993 H       1  LIG1        0.0278
     19 H          -3.7836   -0.6749   -0.2499 H       1  LIG1        0.0278
@<TRIPOS>BOND
     1    17    14    1
     2    19    14    1
     3    10     8    1
     4     7     8   ar
     5     7     6   ar
     6     7    14    1
     7    16     6    1
     8    12     1    1
     9     8     3   ar
    10     6     5   ar
    11     3     9    1
    12     3     4   ar
    13     5    15    1
    14     5     4   ar
    15     1    13    1
    16     1     2    2
    17     4     2    1
    18     2    11    1
    19    14    18    1
@<TRIPOS>MOLECULE
4cyanostyrene energy: -25.679419853489 gnorm: 0.000038460121 xtb: 6.4.1 (afa7bdf)
 17 17 0 0 0
SMALL
GASTEIGER

@<TRIPOS>ATOM
      1 C          -3.7443   -0.5751    0.0158 C.2     1  LIG1       -0.0981
      2 C          -2.8286    0.3866   -0.0079 C.2     1  LIG1       -0.0617
      3 C          -0.7663   -1.0424   -0.0086 C.ar    1  LIG1       -0.0534
      4 C          -1.3821    0.2125   -0.0054 C.ar    1  LIG1       -0.0255
      5 C          -0.5683    1.3497   -0.0005 C.ar    1  LIG1       -0.0534
      6 C           0.8059    1.2472    0.0029 C.ar    1  LIG1       -0.0438
      7 C           1.4047   -0.0135    0.0003 C.ar    1  LIG1        0.0518
      8 C           0.6064   -1.1593   -0.0058 C.ar    1  LIG1       -0.0438
      9 H          -1.3680   -1.9375   -0.0149 H       1  LIG1        0.0624
     10 H           1.0744   -2.1330   -0.0087 H       1  LIG1        0.0631
     11 H          -3.1551    1.4194   -0.0292 H       1  LIG1        0.0618
     12 H          -3.4949   -1.6219    0.0407 H       1  LIG1        0.0535
     13 H          -4.7954   -0.3435    0.0124 H       1  LIG1        0.0535
     14 C           2.8122   -0.1304    0.0029 C.1     1  LIG1        0.0992
     15 H          -1.0276    2.3280    0.0014 H       1  LIG1        0.0624
     16 H           1.4249    2.1324    0.0071 H       1  LIG1        0.0631
     17 N           3.9551   -0.2249    0.0049 N.1     1  LIG1       -0.1909
@<TRIPOS>BOND
     1    11     2    1
     2     9     3    1
     3    10     8    1
     4     3     8   ar
     5     3     4   ar
     6     2     4    1
     7     2     1    2
     8     8     7   ar
     9     4     5   ar
    10     5    15    1
    11     5     6   ar
    12     7     6   ar
    13     7    14    1
    14     6    16    1
    15    14    17    3
    16    13     1    1
    17     1    12    1
@<TRIPOS>MOLECULE
4nitrostyrene energy: -31.620125232656 gnorm: 0.000024201930 xtb: 6.4.1 (afa7bdf)
 18 18 0 0 0
SMALL
GASTEIGER

@<TRIPOS>ATOM
      1 C           4.1298   -0.5765   -0.0673 C.2     1  LIG1       -0.0981
      2 C           3.2221    0.3888    0.0307 C.2     1  LIG1       -0.0617
      3 C           0.9684    1.3665    0.0079 C.ar    1  LIG1       -0.0525
      4 C           1.7751    0.2226    0.0230 C.ar    1  LIG1       -0.0254
      5 C           1.1549   -1.0316    0.0332 C.ar    1  LIG1       -0.0525
      6 C          -0.2181   -1.1410    0.0229 C.ar    1  LIG1       -0.0309
      7 C          -0.9975    0.0113    0.0026 C.ar    1  LIG1        0.1262
      8 C          -0.4058    1.2698   -0.0043 C.ar    1  LIG1       -0.0309
      9 H           1.4334    2.3412    0.0026 H       1  LIG1        0.0624
     10 H          -1.0338    2.1474   -0.0179 H       1  LIG1        0.0640
     11 H           3.5558    1.4154    0.1163 H       1  LIG1        0.0618
     12 H           3.8713   -1.6165   -0.1679 H       1  LIG1        0.0535
     13 H           5.1825   -0.3532   -0.0560 H       1  LIG1        0.0535
     14 N          -2.4302   -0.1004   -0.0087 N.pl3   1  LIG1        0.0564
     15 H           1.7531   -1.9281    0.0551 H       1  LIG1        0.0624
     16 H          -0.7056   -2.1040    0.0316 H       1  LIG1        0.0640
     17 O          -2.9099   -1.2156   -0.0034 O.2     1  LIG1       -0.1261
     18 O          -3.0767    0.9269   -0.0232 O.2     1  LIG1       -0.1261
@<TRIPOS>BOND
     1    12     1    1
     2     1    13    1
     3     1     2    2
     4    18    14    2
     5    10     8    1
     6    14    17    2
     7    14     7    1
     8     8     7   ar
     9     8     3   ar
    10     7     6   ar
    11     9     3    1
    12     3     4   ar
    13     6    16    1
    14     6     5   ar
    15     4     2    1
    16     4     5   ar
    17     2    11    1
    18     5    15    1
@<TRIPOS>MOLECULE
acrolein energy: -12.462328235357 gnorm: 0.000028773902 xtb: 6.4.1 (afa7bdf)
 8 7 0 0 0
SMALL
GASTEIGER

@<TRIPOS>ATOM
      1 C           1.8367   -0.1452   -0.0001 C.2     1  LIG1       -0.0957
      2 C           0.6383    0.4263    0.0001 C.2     1  LIG1       -0.0295
      3 C          -0.5986   -0.3580    0.0001 C.2     1  LIG1        0.1425
      4 O          -1.7096    0.1045   -0.0001 O.2     1  LIG1       -0.2963
      5 H          -0.4328   -1.4541    0.0004 H       1  LIG1        0.1075
      6 H           2.7475    0.4294   -0.0001 H       1  LIG1        0.0536
      7 H           1.9456   -1.2185   -0.0003 H       1  LIG1        0.0536
      8 H           0.5173    1.5007    0.0002 H       1  LIG1        0.0644
@<TRIPOS>BOND
     1     7     1    1
     2     1     6    1
     3     1     2    2
     4     4     3    2
     5     2     3    1
     6     2     8    1
     7     3     5    1
@<TRIPOS>MOLECULE
3buten2one energy: -15.638874707575 gnorm: 0.000039424009 xtb: 6.4.1 (afa7bdf)
 11 10 0 0 0
SMALL
GASTEIGER

@<TRIPOS>ATOM
      1 C           1.9945   -0.0828    0.0002 C.2     1  LIG1       -0.0954
      2 C           0.8090   -0.6785   -0.0003 C.2     1  LIG1       -0.0266
      3 H           0.7123   -1.7549   -0.0005 H       1  LIG1        0.0646
      4 C          -0.4494    0.1043   -0.0001 C.2     1  LIG1        0.1525
      5 H           2.0547    0.9939    0.0004 H       1  LIG1        0.0536
      6 H           2.9218   -0.6301    0.0001 H       1  LIG1        0.0536
      7 C          -1.7019   -0.7362    0.0002 C.3     1  LIG1       -0.0020
      8 H          -1.7119   -1.3755   -0.8807 H       1  LIG1        0.0309
      9 H          -2.5832   -0.1007   -0.0002 H       1  LIG1        0.0309
     10 H          -1.7120   -1.3747    0.8817 H       1  LIG1        0.0309
     11 O          -0.4695    1.3131   -0.0001 O.2     1  LIG1       -0.2930
@<TRIPOS>BOND
     1     8     7    1
     2     3     2    1
     3     2     4    1
     4     2     1    2
     5     9     7    1
     6    11     4    2
     7     4     7    1
     8     6     1    1
     9     1     5    1
    10     7    10    1
@<TRIPOS>MOLECULE
acrylamide energy: -15.923423182347 gnorm: 0.000027214330 xtb: 6.4.1 (afa7bdf)
 10 9 0 0 0
SMALL
GASTEIGER

@<TRIPOS>ATOM
      1 C           1.9918    0.0071   -0.0001 C.2     1  LIG1       -0.0938
      2 C           0.8394    0.6590   -0.0000 C.2     1  LIG1       -0.0072
      3 H           0.7916    1.7392    0.0000 H       1  LIG1        0.0663
      4 C          -0.4522   -0.0747   -0.0001 C.2     1  LIG1        0.2338
      5 H           1.9945   -1.0708   -0.0000 H       1  LIG1        0.0536
      6 H           2.9447    0.5081    0.0001 H       1  LIG1        0.0536
      7 N          -1.5478    0.7284   -0.0000 N.am    1  LIG1       -0.3258
      8 O          -0.5435   -1.2838   -0.0001 O.2     1  LIG1       -0.2711
      9 H          -1.4848    1.7300   -0.0001 H       1  LIG1        0.1452
     10 H          -2.4587    0.3014   -0.0001 H       1  LIG1        0.1452
@<TRIPOS>BOND
     1     9     7    1
     2    10     7    1
     3     1     2    2
     4     1     5    1
     5     1     6    1
     6     8     4    2
     7     4     2    1
     8     4     7   am
     9     2     3    1
@<TRIPOS>MOLECULE
333trifluoroprop1ene energy: -22.121991835045 gnorm: 0.000044563679 xtb: 6.4.1 (afa7bdf)
 9 8 0 0 0
SMALL
GASTEIGER

@<TRIPOS>ATOM
      1 C           2.1994    0.0114   -0.0000 C.2     1  LIG1       -0.0943
      2 C           1.0766   -0.6801   -0.0002 C.2     1  LIG1        0.0112
      3 H           1.0361   -1.7588   -0.0003 H       1  LIG1        0.0654
      4 C          -0.2764   -0.0364   -0.0000 C.3     1  LIG1        0.4103
      5 H           2.2016    1.0889    0.0001 H       1  LIG1        0.0534
      6 H           3.1562   -0.4800   -0.0001 H       1  LIG1        0.0534
      7 F          -1.0012   -0.3983   -1.0746 F       1  LIG1       -0.1665
      8 F          -0.2343    1.3017   -0.0011 F       1  LIG1       -0.1665
      9 F          -1.0001   -0.3966    1.0758 F       1  LIG1       -0.1665
@<TRIPOS>BOND
     1     7     4    1
     2     8     4    1
     3     3     2    1
     4     2     4    1
     5     2     1    2
     6     6     1    1
     7     4     9    1
     8     1     5    1
@<TRIPOS>MOLECULE
nitroethene energy: -16.729334867937 gnorm: 0.000030753220 xtb: 6.4.1 (afa7bdf)
 8 7 0 0 0
SMALL
GASTEIGER

@<TRIPOS>ATOM
      1 C          -1.9229    0.0145    0.0001 C.2     1  LIG1       -0.0757
      2 C          -0.7880   -0.6617    0.0001 C.2     1  LIG1        0.0830
      3 H          -0.6921   -1.7366    0.0002 H       1  LIG1        0.0874
      4 N           0.4831    0.0175    0.0000 N.pl3   1  LIG1        0.0486
      5 H          -1.9098    1.0936   -0.0000 H       1  LIG1        0.0551
      6 H          -2.8794   -0.4765    0.0000 H       1  LIG1        0.0551
      7 O           0.4887    1.2276   -0.0000 O.2     1  LIG1       -0.1267
      8 O           1.4689   -0.6866   -0.0001 O.2     1  LIG1       -0.1267
@<TRIPOS>BOND
     1     8     4    2
     2     5     1    1
     3     7     4    2
     4     4     2    1
     5     6     1    1
     6     1     2    2
     7     2     3    1
@<TRIPOS>MOLECULE
NnitrosoNmethylvinylamine energy: -19.287417918179 gnorm: 0.000037360693 xtb: 6.4.1 (afa7bdf)
 12 11 0 0 0
SMALL
GASTEIGER

@<TRIPOS>ATOM
      1 C           2.4077   -0.1261   -0.0001 C.2     1  LIG1       -0.0830
      2 C           1.1997   -0.6724    0.0001 C.2     1  LIG1        0.0107
      3 C          -0.0269    1.4714    0.0000 C.3     1  LIG1        0.0259
      4 H           1.0477   -1.7422    0.0004 H       1  LIG1        0.0794
      5 N           0.0016    0.0231    0.0000 N.pl3   1  LIG1       -0.1999
      6 H           3.2825   -0.7492   -0.0002 H       1  LIG1        0.0548
      7 H           2.5746    0.9360   -0.0005 H       1  LIG1        0.0548
      8 N          -1.0836   -0.7192   -0.0000 N.2     1  LIG1        0.0483
      9 O          -2.1661   -0.1433    0.0000 O.2     1  LIG1       -0.1257
     10 H           0.4628    1.8595   -0.8926 H       1  LIG1        0.0449
     11 H          -1.0782    1.7653    0.0003 H       1  LIG1        0.0449
     12 H           0.4631    1.8594    0.8925 H       1  LIG1        0.0449
@<TRIPOS>BOND
     1    10     3    1
     2     7     1    1
     3     6     1    1
     4     1     2    2
     5     8     9    2
     6     8     5    1
     7     5     3    1
     8     5     2    1
     9     3    11    1
    10     3    12    1
    11     2     4    1
@<TRIPOS>MOLECULE
cyclohexene energy: -17.931438921701 gnorm: 0.000012408956 xtb: 6.4.1 (afa7bdf)
 16 16 0 0 0
SMALL
GASTEIGER

@<TRIPOS>ATOM
      1 C          -0.1305   -0.6901   -1.3505 C.2     1  LIG1       -0.0879
      2 C          -1.2418    0.0235   -1.4135 C.2     1  LIG1       -0.0879
      3 H          -0.0722   -1.3293    2.0223 H       1  LIG1        0.0268
      4 C          -0.5662   -1.1428    1.0665 C.3     1  LIG1       -0.0493
      5 H          -1.3202   -1.9191    0.9191 H       1  LIG1        0.0268
      6 C           0.4519   -1.2030   -0.0691 C.3     1  LIG1       -0.0348
      7 H           1.3301   -0.5996    0.1863 H       1  LIG1        0.0307
      8 H           0.8003   -2.2296   -0.2108 H       1  LIG1        0.0307
      9 H           0.4205   -0.9280   -2.2505 H       1  LIG1        0.0569
     10 H          -1.6257    0.3578   -2.3680 H       1  LIG1        0.0569
     11 C          -2.0481    0.4071   -0.2106 C.3     1  LIG1       -0.0348
     12 H          -2.3752    1.4460   -0.3056 H       1  LIG1        0.0307
     13 H          -2.9520   -0.2113   -0.1793 H       1  LIG1        0.0307
     14 C          -1.2482    0.2209    1.0760 C.3     1  LIG1       -0.0493
     15 H          -0.4872    1.0011    1.1461 H       1  LIG1        0.0268
     16 H          -1.9064    0.3126    1.9424 H       1  LIG1        0.0268
@<TRIPOS>BOND
     1    10     2    1
     2     9     1    1
     3     2     1    2
     4     2    11    1
     5     1     6    1
     6    12    11    1
     7     8     6    1
     8    11    13    1
     9    11    14    1
    10     6     7    1
    11     6     4    1
    12     5     4    1
    13     4    14    1
    14     4     3    1
    15    14    15    1
    16    14    16    1
@<TRIPOS>MOLECULE
dehydrocamphor energy: -32.606100470148 gnorm: 0.000047337491 xtb: 6.4.1 (afa7bdf)
 25 26 0 0 0
SMALL
GASTEIGER

@<TRIPOS>ATOM
      1 C          -0.4963   -1.5592   -1.4104 C.2     1  LIG1       -0.0830
      2 C          -1.1063   -0.3811   -1.4006 C.2     1  LIG1       -0.0742
      3 H          -0.2597   -1.9496    1.9513 H       1  LIG1        0.0348
      4 C          -0.7047   -1.7880    0.9701 C.3     1  LIG1        0.0135
      5 H          -1.4172   -2.5929    0.7916 H       1  LIG1        0.0348
      6 C           0.3369   -1.6491   -0.1539 C.3     1  LIG1       -0.0099
      7 C           0.7856   -0.1747    0.0046 C.3     1  LIG1       -0.0127
      8 H           1.1228   -2.4007   -0.1476 H       1  LIG1        0.0353
      9 H          -0.6018   -2.3579   -2.1212 H       1  LIG1        0.0572
     10 H          -1.8275    0.0115   -2.0929 H       1  LIG1        0.0579
     11 C          -0.6596    0.3715   -0.1641 C.3     1  LIG1        0.0498
     12 C          -0.9081    1.8620   -0.1401 C.3     1  LIG1       -0.0488
     13 C          -1.3901   -0.4324    0.9199 C.2     1  LIG1        0.1440
     14 H          -1.9789    2.0528   -0.1215 H       1  LIG1        0.0242
     15 H          -0.4792    2.3370   -1.0196 H       1  LIG1        0.0242
     16 H          -0.4701    2.3046    0.7514 H       1  LIG1        0.0242
     17 C           1.7465    0.2683   -1.0948 C.3     1  LIG1       -0.0581
     18 C           1.4103    0.1617    1.3567 C.3     1  LIG1       -0.0581
     19 H           1.3583    0.0337   -2.0821 H       1  LIG1        0.0236
     20 H           2.7014   -0.2383   -0.9705 H       1  LIG1        0.0236
     21 H           1.9191    1.3403   -1.0355 H       1  LIG1        0.0236
     22 H           0.6915    0.1051    2.1694 H       1  LIG1        0.0236
     23 H           1.8093    1.1736    1.3377 H       1  LIG1        0.0236
     24 H           2.2325   -0.5196    1.5680 H       1  LIG1        0.0236
     25 O          -2.3289   -0.0654    1.5707 O.2     1  LIG1       -0.2965
@<TRIPOS>BOND
     1     9     1    1
     2    10     2    1
     3    19    17    1
     4     1     2    2
     5     1     6    1
     6     2    11    1
     7    17    21    1
     8    17    20    1
     9    17     7    1
    10    15    12    1
    11    11    12    1
    12    11     7    1
    13    11    13    1
    14     6     8    1
    15     6     7    1
    16     6     4    1
    17    12    14    1
    18    12    16    1
    19     7    18    1
    20     5     4    1
    21    13     4    1
    22    13    25    2
    23     4     3    1
    24    23    18    1
    25    18    24    1
    26    18    22    1
@<TRIPOS>MOLECULE
5methylenecamphor energy: -35.781700375247 gnorm: 0.000033215582 xtb: 6.4.1 (afa7bdf)
 28 29 0 0 0
SMALL
GASTEIGER

@<TRIPOS>ATOM
      1 C          -0.8695   -2.6510   -2.0036 C.2     1  LIG1       -0.0991
      2 C          -0.6941   -1.6480   -1.1651 C.2     1  LIG1       -0.0717
      3 C          -1.3341   -0.2839   -1.2294 C.3     1  LIG1       -0.0191
      4 H          -0.3277   -1.7694    2.2046 H       1  LIG1        0.0348
      5 C          -0.8140   -1.6143    1.2415 C.3     1  LIG1        0.0134
      6 H          -1.6040   -2.3607    1.1469 H       1  LIG1        0.0348
      7 C           0.1724   -1.6327    0.0671 C.3     1  LIG1       -0.0074
      8 C           0.7126   -0.1854    0.0516 C.3     1  LIG1       -0.0157
      9 H           0.9163   -2.4252    0.1140 H       1  LIG1        0.0355
     10 C          -0.6969    0.4523   -0.0277 C.3     1  LIG1        0.0355
     11 C          -0.8192    1.9604   -0.0668 C.3     1  LIG1       -0.0520
     12 C          -1.3884   -0.2109    1.1565 C.2     1  LIG1        0.1406
     13 H          -1.8686    2.2422   -0.0140 H       1  LIG1        0.0239
     14 H          -0.3941    2.3602   -0.9849 H       1  LIG1        0.0239
     15 H          -0.3073    2.4050    0.7832 H       1  LIG1        0.0239
     16 C           1.6069    0.0858   -1.1551 C.3     1  LIG1       -0.0584
     17 C           1.4723    0.2136    1.3161 C.3     1  LIG1       -0.0584
     18 H           1.1759   -0.2975   -2.0752 H       1  LIG1        0.0235
     19 H           2.5693   -0.4006   -1.0084 H       1  LIG1        0.0235
     20 H           1.7806    1.1537   -1.2667 H       1  LIG1        0.0235
     21 H           0.8226    0.2625    2.1859 H       1  LIG1        0.0235
     22 H           1.9243    1.1939    1.1819 H       1  LIG1        0.0235
     23 H           2.2693   -0.5002    1.5159 H       1  LIG1        0.0235
     24 O          -2.2415    0.2629    1.8566 O.2     1  LIG1       -0.2968
     25 H          -2.4215   -0.3362   -1.1421 H       1  LIG1        0.0320
     26 H          -1.1048    0.2300   -2.1642 H       1  LIG1        0.0320
     27 H          -1.5290   -2.5738   -2.8516 H       1  LIG1        0.0534
     28 H          -0.3600   -3.5908   -1.8758 H       1  LIG1        0.0534
@<TRIPOS>BOND
     1    27     1    1
     2    26     3    1
     3    18    16    1
     4     1    28    1
     5     1     2    2
     6    20    16    1
     7     3     2    1
     8     3    25    1
     9     3    10    1
    10     2     7    1
    11    16    19    1
    12    16     8    1
    13    14    11    1
    14    11    10    1
    15    11    13    1
    16    11    15    1
    17    10     8    1
    18    10    12    1
    19     8     7    1
    20     8    17    1
    21     7     9    1
    22     7     5    1
    23     6     5    1
    24    12     5    1
    25    12    24    2
    26    22    17    1
    27     5     4    1
    28    17    23    1
    29    17    21    1
@<TRIPOS>MOLECULE
2methylpropene energy: -12.613496695286 gnorm: 0.000035572809 xtb: 6.4.1 (afa7bdf)
 12 11 0 0 0
SMALL
GASTEIGER

@<TRIPOS>ATOM
      1 C           0.0254   -0.5579   -1.1934 C.2     1  LIG1       -0.1000
      2 C          -1.1704   -0.0032   -1.3003 C.2     1  LIG1       -0.0828
      3 C          -1.8094    0.2850   -2.6251 C.3     1  LIG1       -0.0443
      4 C          -1.9885    0.3843   -0.1057 C.3     1  LIG1       -0.0443
      5 H           0.6053   -0.8325   -2.0584 H       1  LIG1        0.0534
      6 H           0.4756   -0.7611   -0.2364 H       1  LIG1        0.0534
      7 H          -2.1993    1.4533   -0.1244 H       1  LIG1        0.0274
      8 H          -1.4703    0.1467    0.8194 H       1  LIG1        0.0274
      9 H          -2.9436   -0.1403   -0.1169 H       1  LIG1        0.0274
     10 H          -1.1647   -0.0164   -3.4463 H       1  LIG1        0.0274
     11 H          -2.0202    1.3501   -2.7179 H       1  LIG1        0.0274
     12 H          -2.7566   -0.2472   -2.7100 H       1  LIG1        0.0274
@<TRIPOS>BOND
     1    10     3    1
     2    11     3    1
     3    12     3    1
     4     3     2    1
     5     5     1    1
     6     2     1    2
     7     2     4    1
     8     1     6    1
     9     7     4    1
    10     9     4    1
    11     4     8    1
@<TRIPOS>MOLECULE
trimethylethylene energy: -15.780162738111 gnorm: 0.000020143934 xtb: 6.4.1 (afa7bdf)
 15 14 0 0 0
SMALL
GASTEIGER

@<TRIPOS>ATOM
      1 C          -0.0452   -0.5259   -1.2924 C.2     1  LIG1       -0.0884
      2 C          -1.2472    0.0312   -1.3701 C.2     1  LIG1       -0.0799
      3 C          -1.8986    0.3248   -2.6896 C.3     1  LIG1       -0.0441
      4 C          -2.0673    0.4203   -0.1762 C.3     1  LIG1       -0.0441
      5 H           0.4721   -0.7723   -2.2101 H       1  LIG1        0.0569
      6 C           0.6888   -0.8577   -0.0269 C.3     1  LIG1       -0.0466
      7 H          -2.2716    1.4908   -0.1974 H       1  LIG1        0.0274
      8 H          -1.5648    0.1816    0.7553 H       1  LIG1        0.0274
      9 H          -3.0261   -0.0976   -0.1977 H       1  LIG1        0.0274
     10 H          -1.2623    0.0271   -3.5190 H       1  LIG1        0.0274
     11 H          -2.1102    1.3904   -2.7777 H       1  LIG1        0.0274
     12 H          -2.8468   -0.2069   -2.7696 H       1  LIG1        0.0274
     13 H           1.6530   -1.3042   -0.2543 H       1  LIG1        0.0272
     14 H           0.1221   -1.5633    0.5805 H       1  LIG1        0.0272
     15 H           0.8609    0.0368    0.5715 H       1  LIG1        0.0272
@<TRIPOS>BOND
     1    10     3    1
     2    11     3    1
     3    12     3    1
     4     3     2    1
     5     5     1    1
     6     2     1    2
     7     2     4    1
     8     1     6    1
     9    13     6    1
    10     9     4    1
    11     7     4    1
    12     4     8    1
    13     6    15    1
    14     6    14    1
@<TRIPOS>MOLECULE
tetramethylethylene energy: -18.947121569866 gnorm: 0.000017186148 xtb: 6.4.1 (afa7bdf)
 18 17 0 0 0
SMALL
GASTEIGER

@<TRIPOS>ATOM
      1 C          -0.1113   -0.5292   -1.2444 C.2     1  LIG1       -0.0770
      2 C          -1.2903    0.0866   -1.3236 C.2     1  LIG1       -0.0770
      3 C          -1.9505    0.4037   -2.6378 C.3     1  LIG1       -0.0438
      4 C          -2.0614    0.5170   -0.1055 C.3     1  LIG1       -0.0438
      5 C           0.6290   -1.0182   -2.4595 C.3     1  LIG1       -0.0438
      6 C           0.5797   -0.7878    0.0668 C.3     1  LIG1       -0.0438
      7 H          -1.7353    1.5036    0.2279 H       1  LIG1        0.0274
      8 H          -1.9290   -0.1804    0.7177 H       1  LIG1        0.0274
      9 H          -3.1228    0.5761   -0.3358 H       1  LIG1        0.0274
     10 H          -1.2187    0.6497   -3.4029 H       1  LIG1        0.0274
     11 H          -2.6237    1.2505   -2.5239 H       1  LIG1        0.0274
     12 H          -2.5378   -0.4466   -2.9887 H       1  LIG1        0.0274
     13 H           1.6532   -0.8729   -0.0862 H       1  LIG1        0.0274
     14 H           0.2290   -1.7217    0.5093 H       1  LIG1        0.0274
     15 H           0.3987    0.0139    0.7782 H       1  LIG1        0.0274
     16 H          -0.0542   -1.3685   -3.2289 H       1  LIG1        0.0274
     17 H           1.2900   -1.8389   -2.1900 H       1  LIG1        0.0274
     18 H           1.2408   -0.2206   -2.8844 H       1  LIG1        0.0274
@<TRIPOS>BOND
     1    10     3    1
     2    16     5    1
     3    12     3    1
     4    18     5    1
     5     3    11    1
     6     3     2    1
     7     5    17    1
     8     5     1    1
     9     2     1    2
    10     2     4    1
    11     1     6    1
    12     9     4    1
    13     4     7    1
    14     4     8    1
    15    13     6    1
    16     6    14    1
    17     6    15    1
@<TRIPOS>MOLECULE
vinylmethylether energy: -13.503600722306 gnorm: 0.000012820550 xtb: 6.4.1 (afa7bdf)
 10 9 0 0 0
SMALL
GASTEIGER

@<TRIPOS>ATOM
      1 C          -1.1750    0.1145    0.3024 C.2     1  LIG1       -0.0642
      2 C           0.1314    0.2376    0.1371 C.2     1  LIG1        0.0770
      3 H           0.6006    1.2046   -0.0173 H       1  LIG1        0.1017
      4 O           0.9703   -0.8325    0.1494 O.2     1  LIG1       -0.5032
      5 H          -1.8144    0.9757    0.2883 H       1  LIG1        0.0565
      6 H          -1.6277   -0.8479    0.4544 H       1  LIG1        0.0565
      7 C           2.3333   -0.5433   -0.0397 C.3     1  LIG1        0.0779
      8 H           2.5111   -0.0705   -1.0121 H       1  LIG1        0.0660
      9 H           2.8580   -1.4963   -0.0027 H       1  LIG1        0.0660
     10 H           2.7171    0.1114    0.7506 H       1  LIG1        0.0660
@<TRIPOS>BOND
     1     8     7    1
     2     7     9    1
     3     7     4    1
     4     7    10    1
     5     3     2    1
     6     2     4    1
     7     2     1    2
     8     5     1    1
     9     1     6    1
@<TRIPOS>MOLECULE
vinylmethylthioether energy: -12.680626666504 gnorm: 0.000043604433 xtb: 6.4.1 (afa7bdf)
 10 9 0 0 0
SMALL
GASTEIGER

@<TRIPOS>ATOM
      1 C          -1.3566    0.2148    0.3132 C.2     1  LIG1       -0.0925
      2 C          -0.0430    0.1968    0.1616 C.2     1  LIG1       -0.0360
      3 H           0.5363    1.0931    0.0011 H       1  LIG1        0.0684
      4 S           0.9261   -1.2681    0.2002 S.3     1  LIG1       -0.1370
      5 H          -1.9072    1.1385    0.2819 H       1  LIG1        0.0540
      6 H          -1.9190   -0.6882    0.4725 H       1  LIG1        0.0540
      7 C           2.5759   -0.5504   -0.0672 C.3     1  LIG1       -0.0140
      8 H           2.6028   -0.0452   -1.0286 H       1  LIG1        0.0344
      9 H           3.2798   -1.3762   -0.0639 H       1  LIG1        0.0344
     10 H           2.8097    0.1382    0.7398 H       1  LIG1        0.0344
@<TRIPOS>BOND
     1     8     7    1
     2     7     9    1
     3     7     4    1
     4     7    10    1
     5     3     2    1
     6     2     4    1
     7     2     1    2
     8     5     1    1
     9     1     6    1
